<?xml version="1.0" encoding="UTF-8"?>

<!-- generated on 2025-11-20 17:54:40 by Eclipse SUMO polyconvert Version 1.23.1
<polyconvertConfiguration xmlns:xsi="http://www.w3.org/2001/XMLSchema-instance" xsi:noNamespaceSchemaLocation="http://sumo.dlr.de/xsd/polyconvertConfiguration.xsd">

    <input>
        <net-file value="test.net.xml"/>
        <osm-files value="map.osm"/>
        <type-file value="typemap.xml"/>
    </input>

    <output>
        <output-file value="map.poly.xml"/>
    </output>

    <report>
        <xml-validation value="never"/>
    </report>

</polyconvertConfiguration>
-->

<additional xmlns:xsi="http://www.w3.org/2001/XMLSchema-instance" xsi:noNamespaceSchemaLocation="http://sumo.dlr.de/xsd/additional_file.xsd">
    <location netOffset="-654419.05,-5708899.05" convBoundary="-547.66,-495.26,3088.97,2458.23" origBoundary="-0.782273,51.504788,-0.730478,51.532016" projParameter="+proj=utm +zone=30 +ellps=WGS84 +datum=WGS84 +units=m +no_defs"/>

    <poly id="1078910105" type="building" color="255,230,230" fill="1" layer="-1.00" shape="661.346241,1002.718485 657.895186,1009.992128 653.761753,1018.691803 681.092589,1031.625074 685.374660,1022.607195 688.684087,1015.652007 661.346241,1002.718485"/>
    <poly id="1078910106" type="building" color="255,230,230" fill="1" layer="-1.00" shape="691.946844,936.607363 687.205366,946.568367 684.274171,952.733767 710.010334,964.917265 713.089477,958.455895 717.682396,948.813138 691.946844,936.607363"/>
    <poly id="1274311257" type="forest" color="140,196,107" fill="1" layer="-4.00" shape="660.813601,1001.288720 649.661612,993.802627 639.297208,974.854622 646.697207,955.147149 664.060767,949.556245 682.511759,955.417852 660.813601,1001.288720"/>
    <poly id="1274311258" type="forest" color="140,196,107" fill="1" layer="-4.00" shape="694.130653,1018.289285 714.231415,1017.645959 726.152132,1011.109825 733.477651,993.848753 727.390810,977.401974 719.715205,967.951838 711.709665,967.250823 690.218533,1017.245949 694.130653,1018.289285"/>
    <poly id="1274311259" type="forest" color="140,196,107" fill="1" layer="-4.00" shape="727.720762,960.928748 718.621507,952.392265 718.900202,943.274306 740.218242,898.505018 763.394569,847.248263 779.292927,812.152207 781.509794,812.776483 762.295758,862.974542 736.191939,932.995779 727.720762,960.928748"/>
    <poly id="1274311260" type="forest" color="140,196,107" fill="1" layer="-4.00" shape="669.203930,936.446620 682.581914,926.081719 700.200162,900.119962 725.471771,852.087967 748.159498,810.454662 752.811864,802.961809 753.967039,804.243667 730.810804,852.796525 704.291137,912.354266 693.644542,931.951320 684.046022,934.295767 683.862421,938.486109 669.203930,936.446620"/>
    <poly id="1274311261" type="forest" color="140,196,107" fill="1" layer="-4.00" shape="643.962206,1015.576552 654.470890,1022.753604 611.694762,1110.830580 588.968436,1150.393066 557.982881,1199.631241 553.196798,1205.383908 577.444111,1161.927772 589.006553,1139.141960 610.534157,1093.588392 632.750698,1042.769269 643.962206,1015.576552"/>
    <poly id="1274311262" type="forest" color="140,196,107" fill="1" layer="-4.00" shape="678.099664,1033.904272 689.947853,1046.097378 656.290700,1097.501608 620.519222,1154.951727 601.863584,1186.046268 595.288120,1195.595168 594.557465,1194.738113 627.975905,1138.607181 644.618662,1106.816822 663.077713,1067.402412 678.099664,1033.904272"/>
    <poly id="1295537892" type="residential" color="235,235,227" fill="1" layer="-3.00" shape="824.375249,599.336737 773.777881,584.622962 776.217550,562.972083 780.267963,564.954603 783.998073,547.205239 789.392179,455.726980 793.163648,456.387656 835.589423,459.042859 824.375249,599.336737"/>
    <poly id="1295538538" type="residential" color="235,235,227" fill="1" layer="-3.00" shape="1316.162923,1040.876932 1300.226864,1041.111418 1287.403927,1049.644205 1163.029048,1052.574811 885.086197,1035.848503 872.678772,1027.421965 926.964625,794.187248 987.872498,685.253783 1029.916734,699.852519 1048.337408,704.456821 1086.489559,711.902747 1110.665219,727.891390 1140.905511,743.342570 1163.496613,749.622170 1211.255312,761.036387 1214.012725,761.922285 1235.681324,774.729443 1255.332342,793.996945 1264.467534,800.665694 1277.697638,806.948091 1305.385102,815.721957 1334.388205,826.651032 1357.765963,833.300693 1371.759009,838.248910 1375.874724,839.900035 1406.733118,859.601216 1448.952064,881.999867 1464.814607,890.055363 1502.828002,915.297021 1530.493646,931.305952 1587.919135,965.659172 1613.826164,979.677920 1637.310690,988.469155 1642.855720,990.375923 1661.392766,1012.148498 1659.701761,1017.461135 1656.400045,1019.830453 1593.359521,1030.157494 1537.006453,1039.344065 1450.136921,1054.605839 1381.761307,1051.471358 1349.062596,1049.009686 1330.856631,1047.638481 1316.162923,1040.876932"/>
    <poly id="1307865716" type="landuse" color="194,194,130" fill="1" layer="-3.00" shape="972.113946,631.793149 968.025017,642.642033 963.259561,644.966988 941.146687,635.519809 945.947006,622.299758 972.113946,631.793149"/>
    <poly id="1313299675" type="amenity" color="237,199,199" fill="1" layer="-1.00" shape="1508.992783,676.638013 1523.973228,675.450982 1532.074610,760.743710 1533.880167,758.706756 1536.309226,778.414596 1539.292606,778.272532 1548.306060,841.322338 1519.220083,824.290264 1517.610381,826.733917 1511.703956,823.925800 1473.113491,888.217817 1444.676684,872.886724 1375.594912,832.501179 1455.165831,727.818577 1454.087095,717.946595 1513.577429,710.046218 1508.992783,676.638013"/>
    <poly id="1313299676" type="leisure" color="207,245,201" fill="1" layer="-2.00" shape="1573.954462,916.425155 1694.310043,904.565871 1708.776793,898.388524 1716.476800,890.289043 1723.019397,876.700288 1724.297072,867.446076 1723.651529,856.151569 1717.461481,846.088878 1708.466322,836.919348 1700.919002,832.602509 1689.945827,831.074105 1684.423598,830.904268 1565.551621,842.787202 1558.038471,845.038296 1549.991365,849.977568 1545.039947,855.412652 1538.779497,866.839944 1536.618778,874.787110 1536.683203,884.216148 1538.630687,892.022425 1544.068526,901.037816 1549.257094,906.639792 1552.505779,910.290072 1565.120781,914.651129 1573.954462,916.425155"/>
    <poly id="1313299676#1" type="sport" color="79,230,125" fill="1" layer="-2.00" shape="1573.954462,916.425155 1694.310043,904.565871 1708.776793,898.388524 1716.476800,890.289043 1723.019397,876.700288 1724.297072,867.446076 1723.651529,856.151569 1717.461481,846.088878 1708.466322,836.919348 1700.919002,832.602509 1689.945827,831.074105 1684.423598,830.904268 1565.551621,842.787202 1558.038471,845.038296 1549.991365,849.977568 1545.039947,855.412652 1538.779497,866.839944 1536.618778,874.787110 1536.683203,884.216148 1538.630687,892.022425 1544.068526,901.037816 1549.257094,906.639792 1552.505779,910.290072 1565.120781,914.651129 1573.954462,916.425155"/>
    <poly id="1313299677" type="leisure" color="207,245,201" fill="1" layer="-2.00" shape="1571.470609,905.964580 1692.542639,894.750539 1702.728938,889.799378 1709.796275,881.724946 1712.437413,873.970698 1713.538115,864.599742 1711.975319,857.840305 1706.409520,849.154685 1697.173047,842.637813 1685.510641,840.264601 1566.766762,853.409120 1560.158195,856.277896 1553.059689,861.758291 1549.695135,867.075183 1548.116250,874.617286 1547.687671,880.881403 1550.010216,891.170057 1554.709693,898.226161 1560.265283,903.182761 1571.470609,905.964580"/>
    <poly id="1313299677#1" type="sport" color="79,230,125" fill="1" layer="-2.00" shape="1571.470609,905.964580 1692.542639,894.750539 1702.728938,889.799378 1709.796275,881.724946 1712.437413,873.970698 1713.538115,864.599742 1711.975319,857.840305 1706.409520,849.154685 1697.173047,842.637813 1685.510641,840.264601 1566.766762,853.409120 1560.158195,856.277896 1553.059689,861.758291 1549.695135,867.075183 1548.116250,874.617286 1547.687671,880.881403 1550.010216,891.170057 1554.709693,898.226161 1560.265283,903.182761 1571.470609,905.964580"/>
    <poly id="23591240" type="amenity" color="237,199,199" fill="1" layer="-1.00" shape="1583.329989,956.146704 1628.322130,975.927587 1648.404397,981.776133 1660.570407,995.762175 1678.454826,1003.079193 1753.543923,1005.600591 1753.291612,964.378567 1754.051220,811.954836 1754.882021,739.813732 1754.766569,694.589154 1740.904211,651.078605 1523.973228,675.450982 1532.074610,760.743710 1533.880167,758.706756 1536.309226,778.414596 1539.292606,778.272532 1548.306060,841.322338 1519.220083,824.290264 1517.610381,826.733917 1511.703956,823.925800 1473.113491,888.217817 1500.722664,903.134106 1583.329989,956.146704"/>
    <poly id="24994174" type="residential" color="235,235,227" fill="1" layer="-3.00" shape="1024.926991,1061.398658 1032.626752,1061.423016 1037.617708,1082.555724 1033.123325,1094.404954 1032.198350,1112.362523 1045.849951,1113.025533 1059.367187,1119.661215 1058.681899,1170.136543 1023.273099,1169.129838 1023.821293,1124.026060 1024.926991,1061.398658"/>
    <poly id="24997296" type="residential" color="235,235,227" fill="1" layer="-3.00" shape="1128.903168,1098.719598 1100.477658,1102.745652 1046.400566,1103.437304 1045.849951,1113.025533 1059.367187,1119.661215 1058.681899,1170.136543 1058.472910,1185.344704 1124.946166,1187.503964 1126.895733,1138.391815 1128.903168,1098.719598"/>
    <poly id="24997976" type="building" color="255,230,230" fill="1" layer="-1.00" shape="1315.076723,1150.272969 1341.480061,1152.407685 1345.036409,1108.475725 1318.639779,1106.341208 1315.076723,1150.272969"/>
    <poly id="24999013" type="residential" color="235,235,227" fill="1" layer="-3.00" shape="2079.156317,600.336534 2118.076337,591.886881 2204.985769,590.983843 2251.110148,589.424364 2262.225642,550.133468 2234.215340,537.860733 2236.332568,533.162427 2145.346835,491.021982 1988.284577,415.660752 1788.481824,315.193459 1621.953703,227.532525 1405.608717,299.687272 1298.350144,337.409853 1156.478443,396.077532 1011.437881,499.839271 946.708133,562.945204 940.879272,576.189425 921.613740,627.086589 935.402293,630.124089 939.930464,620.123366 945.947006,622.299758 972.113946,631.793149 968.025017,642.642033 1007.085919,647.187994 1031.152730,652.009628 1149.142226,677.828465 1227.125069,687.353322 1278.114930,689.885388 1315.295629,687.119375 1523.921631,658.821277 1635.408550,649.436954 1711.282495,641.285708 1867.909778,627.351668 1925.569027,620.123098 2018.449986,608.849597 2079.156317,600.336534"/>
    <poly id="24999166" type="residential" color="235,235,227" fill="1" layer="-3.00" shape="1372.907121,836.136075 1357.821929,831.477104 1323.965052,820.321048 1297.319168,810.644120 1285.351060,807.138340 1270.657035,800.588422 1263.733480,797.204038 1255.412241,790.259747 1238.652742,774.297459 1225.317483,765.552237 1212.977499,759.675693 1194.140296,753.945017 1162.487387,746.753113 1145.865611,742.370464 1132.257053,736.644453 1122.026422,731.723172 1087.827058,709.951473 1035.253779,699.270263 989.503213,682.343162 961.678523,662.815426 963.759157,652.238958 971.460684,652.452455 985.531393,651.714576 1021.301321,657.373054 1129.994781,684.476106 1157.467349,688.734926 1213.781249,697.450803 1280.074167,698.003537 1359.969139,692.274347 1404.854498,686.228389 1508.992783,676.638013 1513.577429,710.046218 1454.087095,717.946595 1455.165831,727.818577 1375.594912,832.501179 1372.907121,836.136075"/>
    <poly id="25072733" type="residential" color="235,235,227" fill="1" layer="-3.00" shape="846.379560,554.677831 842.483024,545.621375 842.065816,516.804547 848.131485,459.938431 854.407785,350.779579 857.163847,350.129307 858.978860,328.025284 862.022053,325.480592 863.098363,315.040321 859.694042,310.773626 869.204050,146.531903 878.502515,32.579535 881.476087,-12.639127 886.358962,-16.741369 886.715287,-32.022883 879.235917,-33.175441 870.521850,-100.911107 863.181189,-142.482991 853.298720,-176.798021 845.864239,-210.314726 916.162585,-170.044838 981.379210,-132.378026 1074.058749,-80.502370 1139.358129,-44.021774 1140.817260,-15.028257 1171.005615,-8.159864 1358.230706,94.210954 1357.548573,265.145367 1266.411043,295.761617 1178.068985,337.172080 1081.037796,391.829516 986.566485,465.699318 942.902490,504.864379 895.951140,552.309988 867.178872,593.233491 846.379560,554.677831"/>
    <poly id="291527301" type="unknown" color="51,128,255" fill="0" layer="-1.00" shape="-20.698061,574.831142 -16.402358,604.600365 -8.084229,654.625701 -1.000821,707.340294 0.904421,729.168082 189.172779,800.665012 351.100070,860.492090 464.670679,901.552929 494.431202,912.266537 664.302199,976.197343 834.283477,1039.347195 848.922760,1044.046630 862.635291,1043.631404 867.538215,955.777540 876.232675,868.373586 883.467293,771.041660 884.170233,748.747787 882.539810,721.919448 877.426548,686.136314 876.387305,681.519016 873.520918,671.481226 869.376292,660.324736 866.751302,654.879839 858.891500,644.177331 854.250670,639.705854 873.624524,613.163919 889.798005,593.179789 914.082498,565.708641 942.287992,536.287446 983.445055,496.433502 1019.894112,464.527119 1040.930056,447.708509 1068.218877,427.174910 1096.895562,407.362886 1143.112145,377.882364 1184.425866,355.441864 1223.084249,337.171891 1272.699684,315.342758 1343.177447,288.989869 1621.017944,203.975081 1895.477475,117.001087 2262.181696,-0.424775 2335.770534,-27.325034 2369.162801,-40.573765 2402.049139,-53.626442 2432.950218,-67.608387 2450.157803,-75.379758 2477.546008,-88.501666 2540.607012,-120.755166 2565.595441,-134.418270 2620.047748,-166.079984 2640.524585,-178.702492 2705.428343,-221.726584 2803.282092,-289.607119 3088.968790,-495.263242"/>
    <poly id="4480144" type="parking" color="184,184,179" fill="1" layer="-1.00" shape="817.111237,632.726750 822.180683,639.760037 829.012287,634.359523 832.737573,623.811057 830.372618,615.992345 820.315879,614.905687 817.111237,632.726750"/>
    <poly id="4714610" type="forest" color="140,196,107" fill="1" layer="-4.00" shape="856.329778,978.740572 893.038972,929.122668 923.268923,793.328441 987.147064,677.874726 961.618946,659.997744 951.274060,632.936014 918.119676,620.769199 940.879272,576.189425 906.948270,611.857352 881.221207,643.135321 854.104900,683.063330 822.173563,735.810486 790.200737,823.771411 760.956827,903.134642 741.141656,966.425351 767.116048,993.975635 809.741601,1013.109153 839.497930,1002.355212 856.329778,978.740572"/>
    <poly id="4714610#1" type="tourism" color="207,245,201" fill="1" layer="-2.00" shape="856.329778,978.740572 893.038972,929.122668 923.268923,793.328441 987.147064,677.874726 961.618946,659.997744 951.274060,632.936014 918.119676,620.769199 940.879272,576.189425 906.948270,611.857352 881.221207,643.135321 854.104900,683.063330 822.173563,735.810486 790.200737,823.771411 760.956827,903.134642 741.141656,966.425351 767.116048,993.975635 809.741601,1013.109153 839.497930,1002.355212 856.329778,978.740572"/>
    <poly id="4796663" type="natural" color="140,196,107" fill="1" layer="-4.00" shape="868.575059,1068.499184 874.108897,1065.329541 877.112088,1063.852120 876.922497,1062.332656 875.815975,1061.052254 873.286302,1060.896943 864.639832,1061.177757 855.616485,1064.018056 849.798648,1066.711576 841.722356,1071.506338 839.014066,1074.239346 824.866083,1085.715528 803.753383,1103.333887 785.611177,1118.049232 745.320509,1151.119510 696.037339,1191.728391 668.062651,1214.891683 648.511516,1230.977917 606.369939,1265.829085 589.375741,1279.823316 434.142269,1411.191017 322.243334,1500.121867 183.878386,1614.247833 154.076088,1638.760413 98.366208,1684.398767 24.815097,1744.397421 -89.658472,1839.257261 -90.350404,1850.822319 -89.226240,1865.903976 -88.225720,1883.452685 -87.120618,1890.486931 -86.256118,1894.019108 -81.545478,1903.711744 -71.042577,1924.510030 -28.768576,1916.914590 -26.365537,1930.343459 -23.240150,1936.003456 -2.906861,1956.333084 3.702141,1964.091352 -10.793538,2004.017962 32.404093,2044.287041 214.624312,2023.749007 217.846957,2019.829360 221.034027,2013.660406 223.924468,2019.046296 227.957519,2026.347953 232.525970,2033.621414 243.733502,2052.661138 246.524526,2062.217696 248.467762,2061.553494 250.104496,2060.468147 254.948978,2070.298776 260.160063,2082.221864 261.886904,2090.477190 263.581350,2100.022590 267.592606,2123.973841 271.308261,2140.314413 272.642214,2146.654567 273.459807,2151.487580 272.579119,2154.643859 270.803668,2156.181292 266.116273,2157.596555 268.642929,2175.592611 283.186444,2174.911936 277.787549,2142.515334 272.674921,2113.477550 269.929578,2094.228287 269.858639,2092.456482 270.464546,2087.611221 272.397196,2085.700166 276.432119,2085.422513 280.047829,2088.192785 302.750052,2107.271513 314.805454,2117.388888 339.920213,2133.836823 376.072638,2160.527193 382.720003,2150.846711 403.165790,2122.366042 427.082343,2139.623729 427.418942,2143.607356 461.079229,2169.142702 436.146620,2195.872370 435.142516,2200.794504 445.936572,2205.141846 471.398119,2216.570369 470.898278,2217.935211 482.792109,2219.455839 502.411493,2262.381723 509.995626,2278.406582 514.499775,2289.128622 515.949889,2292.790110 519.731747,2304.658735 523.383138,2325.571953 526.030428,2340.266308 522.743330,2342.202681 526.647724,2350.057177 540.101237,2375.276545 553.413946,2398.510539 575.656757,2436.864640 585.363388,2447.701191 591.775268,2458.225621 601.739096,2447.466990 607.845658,2440.040762 618.428400,2422.433943 623.128728,2415.821757 638.307354,2390.709209 652.033326,2368.613013 663.412706,2352.432989 677.361981,2333.938628 682.703374,2327.479647 689.541944,2320.187184 698.729738,2310.985438 698.648418,2309.558327 698.762037,2307.658592 698.238481,2306.618636 702.286263,2300.921472 697.041984,2300.115595 618.948626,2273.432024 619.182654,2272.815903 582.008589,2260.316448 581.646611,2261.485155 547.786628,2245.481135 559.456723,2205.235878 560.308430,2202.579599 561.321978,2200.306678 545.486387,2198.287055 536.508766,2196.065128 533.759431,2194.256031 532.572299,2192.438998 531.882294,2190.937653 531.142747,2186.285047 535.441691,2171.224087 545.400875,2145.629088 550.387589,2130.099431 554.949026,2101.902141 558.876871,2086.039642 566.665069,2085.843476 581.527774,2049.502191 584.090321,2041.066133 585.225835,2039.119708 586.844478,2037.265952 589.242196,2036.270737 592.333580,2035.975637 599.750529,2033.163788 609.332195,2029.939508 612.621184,2029.539159 614.523634,2029.530510 616.771877,2030.701063 622.400439,2035.525336 635.818236,2045.573828 635.674442,2046.871628 653.143069,2061.573819 667.518571,2073.899906 670.062355,2073.576986 683.450443,2083.001433 691.356598,2089.620545 701.609322,2098.960322 713.454772,2111.153549 719.506227,2117.126117 727.119626,2122.645610 733.916774,2128.295973 750.303911,2140.661571 755.411513,2144.579682 758.417010,2146.864191 760.994450,2150.660403 762.542617,2154.970499 763.051384,2159.671740 762.350444,2181.453738 762.431736,2190.371259 762.975903,2196.865495 761.949722,2207.719132 760.532599,2221.821867 758.962354,2236.164776 758.531960,2240.703734 757.213080,2244.558853 756.102826,2247.040249 753.983925,2250.269886 745.744603,2258.187223 727.084673,2277.705999 712.648922,2292.801880 708.432703,2296.969092 705.859105,2299.405753 704.370703,2300.406452 702.774464,2300.847360 703.740801,2301.255323 705.816128,2301.719454 707.526256,2302.094510 709.058037,2301.718411 710.837047,2300.748860 714.693028,2297.238426 736.065267,2281.186041 748.507448,2272.261983 751.894159,2270.250887 775.660332,2258.779480 783.025055,2256.533935 780.349312,2256.407563 779.253578,2255.917718 778.044247,2253.921865 772.957510,2235.936190 772.837331,2233.283602 775.642220,2218.522136 776.171469,2215.744725 777.115684,2213.926047 778.434270,2213.031472 780.848467,2212.404139 781.987127,2212.171854 782.553227,2205.466722 774.874705,2187.557584 798.950353,2172.111233 773.371043,2156.147580 776.285158,2099.006867 779.200362,2096.981361 777.589737,2094.939846 763.080720,2097.656945 761.060726,2097.650812 759.775443,2097.455683 758.154196,2096.215200 754.905515,2093.255463 752.136764,2089.130639 748.054662,2081.415219 747.203651,2074.510929 746.241636,2072.144234 745.064130,2070.694729 743.748653,2069.897668 740.895242,2061.730117 739.502674,2056.189373 738.883030,2051.707343 738.628331,2046.869188 738.422526,2040.886151 737.929008,2037.955032 735.266241,2027.411523 733.684080,2020.351320 731.865769,2007.618791 730.379832,1989.465049 728.832077,1963.796753 727.303941,1953.833310 726.198821,1943.203880 723.374130,1941.358991 723.022980,1937.630877 722.495982,1934.431620 722.453412,1930.601642 722.728398,1925.468049 724.109669,1919.800659 727.275525,1910.715315 738.592769,1884.572275 732.134530,1883.039210 730.498447,1890.001002 712.897937,1889.362691 669.466660,1887.289323 669.361235,1873.930263 668.986961,1814.852634 668.304674,1772.438132 697.555538,1756.036420 700.473623,1755.057158 719.993995,1750.367244 735.757164,1745.718336 724.109464,1695.010680 720.306130,1691.789166 718.305889,1689.769156 713.786042,1682.051535 708.331738,1672.424405 704.023668,1662.320348 703.542983,1657.831448 703.757195,1650.369858 714.289196,1622.444230 733.926527,1570.801014 740.222789,1554.710530 751.789836,1521.329588 756.813083,1509.863609 763.811090,1490.355477 769.416389,1472.118088 775.364807,1456.284118 777.566867,1443.307256 781.416444,1433.897818 789.058172,1414.687648 800.036622,1396.937387 802.258039,1389.459280 802.799377,1388.785786 805.484191,1382.501620 811.331699,1364.071338 818.966327,1339.652207 821.738928,1331.634474 827.445924,1317.573947 831.518354,1305.878604 833.117282,1300.139985 833.996753,1294.768902 835.554177,1285.166948 840.947156,1245.286656 839.728852,1244.937749 840.221462,1237.006091 839.240870,1234.560911 838.073212,1229.605788 837.653595,1223.349094 839.035816,1216.524249 841.310306,1204.818428 842.090807,1196.327954 842.961222,1187.395037 845.180767,1176.577926 846.881741,1172.044458 849.203386,1160.840926 850.589883,1145.479604 852.508276,1131.570308 852.614041,1125.162739 852.453302,1122.019198 851.884431,1119.052379 853.108022,1111.966697 857.949113,1093.082729 860.408068,1085.789986 863.059598,1076.288292 863.706038,1071.499966 868.575059,1068.499184"/>
    <poly id="4796663#1" type="tourism" color="207,245,201" fill="1" layer="-2.00" shape="868.575059,1068.499184 874.108897,1065.329541 877.112088,1063.852120 876.922497,1062.332656 875.815975,1061.052254 873.286302,1060.896943 864.639832,1061.177757 855.616485,1064.018056 849.798648,1066.711576 841.722356,1071.506338 839.014066,1074.239346 824.866083,1085.715528 803.753383,1103.333887 785.611177,1118.049232 745.320509,1151.119510 696.037339,1191.728391 668.062651,1214.891683 648.511516,1230.977917 606.369939,1265.829085 589.375741,1279.823316 434.142269,1411.191017 322.243334,1500.121867 183.878386,1614.247833 154.076088,1638.760413 98.366208,1684.398767 24.815097,1744.397421 -89.658472,1839.257261 -90.350404,1850.822319 -89.226240,1865.903976 -88.225720,1883.452685 -87.120618,1890.486931 -86.256118,1894.019108 -81.545478,1903.711744 -71.042577,1924.510030 -28.768576,1916.914590 -26.365537,1930.343459 -23.240150,1936.003456 -2.906861,1956.333084 3.702141,1964.091352 -10.793538,2004.017962 32.404093,2044.287041 214.624312,2023.749007 217.846957,2019.829360 221.034027,2013.660406 223.924468,2019.046296 227.957519,2026.347953 232.525970,2033.621414 243.733502,2052.661138 246.524526,2062.217696 248.467762,2061.553494 250.104496,2060.468147 254.948978,2070.298776 260.160063,2082.221864 261.886904,2090.477190 263.581350,2100.022590 267.592606,2123.973841 271.308261,2140.314413 272.642214,2146.654567 273.459807,2151.487580 272.579119,2154.643859 270.803668,2156.181292 266.116273,2157.596555 268.642929,2175.592611 283.186444,2174.911936 277.787549,2142.515334 272.674921,2113.477550 269.929578,2094.228287 269.858639,2092.456482 270.464546,2087.611221 272.397196,2085.700166 276.432119,2085.422513 280.047829,2088.192785 302.750052,2107.271513 314.805454,2117.388888 339.920213,2133.836823 376.072638,2160.527193 382.720003,2150.846711 403.165790,2122.366042 427.082343,2139.623729 427.418942,2143.607356 461.079229,2169.142702 436.146620,2195.872370 435.142516,2200.794504 445.936572,2205.141846 471.398119,2216.570369 470.898278,2217.935211 482.792109,2219.455839 502.411493,2262.381723 509.995626,2278.406582 514.499775,2289.128622 515.949889,2292.790110 519.731747,2304.658735 523.383138,2325.571953 526.030428,2340.266308 522.743330,2342.202681 526.647724,2350.057177 540.101237,2375.276545 553.413946,2398.510539 575.656757,2436.864640 585.363388,2447.701191 591.775268,2458.225621 601.739096,2447.466990 607.845658,2440.040762 618.428400,2422.433943 623.128728,2415.821757 638.307354,2390.709209 652.033326,2368.613013 663.412706,2352.432989 677.361981,2333.938628 682.703374,2327.479647 689.541944,2320.187184 698.729738,2310.985438 698.648418,2309.558327 698.762037,2307.658592 698.238481,2306.618636 702.286263,2300.921472 697.041984,2300.115595 618.948626,2273.432024 619.182654,2272.815903 582.008589,2260.316448 581.646611,2261.485155 547.786628,2245.481135 559.456723,2205.235878 560.308430,2202.579599 561.321978,2200.306678 545.486387,2198.287055 536.508766,2196.065128 533.759431,2194.256031 532.572299,2192.438998 531.882294,2190.937653 531.142747,2186.285047 535.441691,2171.224087 545.400875,2145.629088 550.387589,2130.099431 554.949026,2101.902141 558.876871,2086.039642 566.665069,2085.843476 581.527774,2049.502191 584.090321,2041.066133 585.225835,2039.119708 586.844478,2037.265952 589.242196,2036.270737 592.333580,2035.975637 599.750529,2033.163788 609.332195,2029.939508 612.621184,2029.539159 614.523634,2029.530510 616.771877,2030.701063 622.400439,2035.525336 635.818236,2045.573828 635.674442,2046.871628 653.143069,2061.573819 667.518571,2073.899906 670.062355,2073.576986 683.450443,2083.001433 691.356598,2089.620545 701.609322,2098.960322 713.454772,2111.153549 719.506227,2117.126117 727.119626,2122.645610 733.916774,2128.295973 750.303911,2140.661571 755.411513,2144.579682 758.417010,2146.864191 760.994450,2150.660403 762.542617,2154.970499 763.051384,2159.671740 762.350444,2181.453738 762.431736,2190.371259 762.975903,2196.865495 761.949722,2207.719132 760.532599,2221.821867 758.962354,2236.164776 758.531960,2240.703734 757.213080,2244.558853 756.102826,2247.040249 753.983925,2250.269886 745.744603,2258.187223 727.084673,2277.705999 712.648922,2292.801880 708.432703,2296.969092 705.859105,2299.405753 704.370703,2300.406452 702.774464,2300.847360 703.740801,2301.255323 705.816128,2301.719454 707.526256,2302.094510 709.058037,2301.718411 710.837047,2300.748860 714.693028,2297.238426 736.065267,2281.186041 748.507448,2272.261983 751.894159,2270.250887 775.660332,2258.779480 783.025055,2256.533935 780.349312,2256.407563 779.253578,2255.917718 778.044247,2253.921865 772.957510,2235.936190 772.837331,2233.283602 775.642220,2218.522136 776.171469,2215.744725 777.115684,2213.926047 778.434270,2213.031472 780.848467,2212.404139 781.987127,2212.171854 782.553227,2205.466722 774.874705,2187.557584 798.950353,2172.111233 773.371043,2156.147580 776.285158,2099.006867 779.200362,2096.981361 777.589737,2094.939846 763.080720,2097.656945 761.060726,2097.650812 759.775443,2097.455683 758.154196,2096.215200 754.905515,2093.255463 752.136764,2089.130639 748.054662,2081.415219 747.203651,2074.510929 746.241636,2072.144234 745.064130,2070.694729 743.748653,2069.897668 740.895242,2061.730117 739.502674,2056.189373 738.883030,2051.707343 738.628331,2046.869188 738.422526,2040.886151 737.929008,2037.955032 735.266241,2027.411523 733.684080,2020.351320 731.865769,2007.618791 730.379832,1989.465049 728.832077,1963.796753 727.303941,1953.833310 726.198821,1943.203880 723.374130,1941.358991 723.022980,1937.630877 722.495982,1934.431620 722.453412,1930.601642 722.728398,1925.468049 724.109669,1919.800659 727.275525,1910.715315 738.592769,1884.572275 732.134530,1883.039210 730.498447,1890.001002 712.897937,1889.362691 669.466660,1887.289323 669.361235,1873.930263 668.986961,1814.852634 668.304674,1772.438132 697.555538,1756.036420 700.473623,1755.057158 719.993995,1750.367244 735.757164,1745.718336 724.109464,1695.010680 720.306130,1691.789166 718.305889,1689.769156 713.786042,1682.051535 708.331738,1672.424405 704.023668,1662.320348 703.542983,1657.831448 703.757195,1650.369858 714.289196,1622.444230 733.926527,1570.801014 740.222789,1554.710530 751.789836,1521.329588 756.813083,1509.863609 763.811090,1490.355477 769.416389,1472.118088 775.364807,1456.284118 777.566867,1443.307256 781.416444,1433.897818 789.058172,1414.687648 800.036622,1396.937387 802.258039,1389.459280 802.799377,1388.785786 805.484191,1382.501620 811.331699,1364.071338 818.966327,1339.652207 821.738928,1331.634474 827.445924,1317.573947 831.518354,1305.878604 833.117282,1300.139985 833.996753,1294.768902 835.554177,1285.166948 840.947156,1245.286656 839.728852,1244.937749 840.221462,1237.006091 839.240870,1234.560911 838.073212,1229.605788 837.653595,1223.349094 839.035816,1216.524249 841.310306,1204.818428 842.090807,1196.327954 842.961222,1187.395037 845.180767,1176.577926 846.881741,1172.044458 849.203386,1160.840926 850.589883,1145.479604 852.508276,1131.570308 852.614041,1125.162739 852.453302,1122.019198 851.884431,1119.052379 853.108022,1111.966697 857.949113,1093.082729 860.408068,1085.789986 863.059598,1076.288292 863.706038,1071.499966 868.575059,1068.499184"/>
    <poly id="49139121" type="landuse" color="194,194,130" fill="1" layer="-3.00" shape="1673.024890,1033.330370 1737.205798,1029.728505 1884.058221,1059.992476 1877.177871,1093.560083 1899.792701,1143.183969 1891.428613,1200.802278 1803.913658,1232.332333 1788.601547,1217.047023 1710.371402,1149.028648 1679.765855,1114.652827 1673.024890,1033.330370"/>