<?xml version="1.0" encoding="UTF-8"?>

<!-- generated on 2025-11-20 18:52:34.201542 by randomTrips.py v1_23_1+0000-676720d13f6
<configuration>
    <net-file value="test.net.xml"/>
    <route-file value="map.rou.xml"/>
    <length value="True"/>
    <validate value="True"/>
    <end value="1000.0"/>
</configuration>
-->

<!-- generated on 2025-11-20 18:52:34 by Eclipse SUMO duarouter Version 1.23.1
<duarouterConfiguration xmlns:xsi="http://www.w3.org/2001/XMLSchema-instance" xsi:noNamespaceSchemaLocation="http://sumo.dlr.de/xsd/duarouterConfiguration.xsd">

    <input>
        <net-file value="test.net.xml"/>
        <route-files value="trips.trips.xml"/>
    </input>

    <output>
        <output-file value="map.rou.xml"/>
        <alternatives-output value="NUL"/>
    </output>

    <time>
        <begin value="0"/>
        <end value="1000.0"/>
    </time>

    <report>
        <no-warnings value="true"/>
        <ignore-errors value="true"/>
        <no-step-log value="true"/>
    </report>

</duarouterConfiguration>
-->

<routes xmlns:xsi="http://www.w3.org/2001/XMLSchema-instance" xsi:noNamespaceSchemaLocation="http://sumo.dlr.de/xsd/routes_file.xsd">
    <vehicle id="0" depart="0.00">
        <route edges="22960020#2 22960020#3 22960020#4 22960020#5 -122623502#4 -122623502#3 -122623502#2 -122623502#1 -122623502#0 -49023178#8 -49023178#7 122559494#0 122559494#1 -122559494#1"/>
    </vehicle>
    <vehicle id="1" depart="1.00">
        <route edges="3322191#4 3322191#5 3322191#6 -3322191#6 -3322191#5 -3322191#4 -3322191#3 -3322191#2 -3322191#1 -3322191#0 281298271#3 281298271#4 281298271#5 281298271#6 281298271#7 516259817 3322192#5 42949688 1333581212 1132279962#0 1132279962#1 30662376 1132279961#0 1132279961#1 3525600"/>
    </vehicle>
    <vehicle id="2" depart="2.00">
        <route edges="49023178#6 122559494#0 122559494#1 122559494#2 122559494#3 122559494#4 122559494#5 -22948823"/>
    </vehicle>
    <vehicle id="3" depart="3.00">
        <route edges="-5095429#2 -5095429#1 -5095429#0 -3322191#3 -3322191#2 -3322191#1 -3322191#0 281298271#3 -122559494#13 -122559494#12 -122559494#11 -122559494#10"/>
    </vehicle>
    <vehicle id="4" depart="4.00">
        <route edges="-1131175356 1788063 3322192#1 3322192#2 3322192#3 49023175 -281298271#7 -281298271#6 -281298271#5 -281298271#4 -281298271#3 3322191#0 3322191#1 3322191#2 3322191#3 3322191#4 3322191#5 3322191#6 3322191#7 -3322191#7"/>
    </vehicle>
    <vehicle id="5" depart="5.00">
        <route edges="24244767#0 24244767#1 24244767#2 -49023178#5 -49023178#4 -49023178#3 -49023178#2 -49023178#1 -49023178#0 49023177 3322192#3 49023175 -281298271#7 -281298271#6 -281298271#5 -281298271#4 -122559494#13 -122559494#12 -22948781 22948781"/>
    </vehicle>
    <vehicle id="6" depart="6.00">
        <route edges="-281298271#4 281298271#4 281298271#5 281298271#6 281298271#7 516259817 3322192#5 3322192#6 3322192#7 3322192#8 3322192#0 3322192#1 3322150 49023178#0 49023178#1 24285791#0 24285791#1 24285791#2"/>
    </vehicle>
    <vehicle id="7" depart="7.00">
        <route edges="-49139996#1 22948823 122559494#6 122559494#7 122559494#8 122559494#9 122559494#10 122559494#11 122559494#12 122559494#13 -281298271#3 -281298271#2 -281298271#1"/>
    </vehicle>
    <vehicle id="8" depart="8.00">
        <route edges="5094815#2 -5095429#1 -5095429#0 -3322191#3 -3322191#2 -3322191#1 -3322191#0 281298271#3 281298271#4 281298271#5 281298271#6 281298271#7 516259817 3322192#5 3322192#6 3322192#7 3322192#8 3322192#0 3322192#1 3322150 49023178#0 49023178#1 49023178#2 49023178#3 49023178#4 49023178#5 49023178#6 49023178#7 49023178#8 62003042#0 62003042#1 -62003042#1 -62003042#0"/>
    </vehicle>
    <vehicle id="9" depart="9.00">
        <route edges="-122623502#5 -22960020#5 -22960020#4 -22960020#3 -22960020#2"/>
    </vehicle>
    <vehicle id="10" depart="10.00">
        <route edges="48926982 49022848 49022851 3525321 186161948 1132279961#1 30662377 1333581211 1132279960 30662378 1132279963 3322195 3322192#7 3322192#8 3322192#0 3322192#1 3322150 49023178#0 49023178#1 49023178#2 24997256"/>
    </vehicle>
    <vehicle id="11" depart="11.00">
        <route edges="4888747"/>
    </vehicle>
    <vehicle id="12" depart="12.00">
        <route edges="122559494#8 -122559494#8 -122559494#7 -122559494#6 -122559494#5 -122559494#4 -122559494#3 -122559494#2 -122559494#1 -122559494#0 49023178#7 49023178#8 62003042#0 62003042#1 62003042#2 62003042#3 62003042#4 62003042#5"/>
    </vehicle>
    <vehicle id="13" depart="13.00">
        <route edges="48926982 49022848 49022851 3525321 186161948 1132279961#1 30662377 1333581211 1132279960 30662378 1132279963 3322195 3322192#7 3322192#8 3322192#0 3322192#1 3322192#2 3322192#3 49023175 -281298271#7 -281298271#6 -281298271#5 -281298271#4 -281298271#3 281298271#3"/>
    </vehicle>
    <vehicle id="14" depart="14.00">
        <route edges="48926982 49022848 49022851 3525321 186161948 1132279961#1 30662377 1333581211 1132279960 30662378 1132279963 3322195 3322192#7 3322192#8 3322192#0 3322192#1 3322150 49023178#0 49023178#1 24285791#0 24285791#1"/>
    </vehicle>
    <vehicle id="15" depart="15.00">
        <route edges="281298271#2 281298271#3 -122559494#13 -122559494#12 -122559494#11 -122559494#10 -122559494#9 -122559494#8"/>
    </vehicle>
    <vehicle id="16" depart="16.00">
        <route edges="22948833 122559494#5 122559494#6 122559494#7 122559494#8 122559494#9 122559494#10 122559494#11 122559494#12 122559494#13 -281298271#3 3322191#0 3322191#1 3322191#2 3322191#3 3322191#4 3322191#5 3322191#6 3322191#7 3322191#8 3322191#9 3322191#10 1037999382#0 1037999382#1 1037999382#2"/>
    </vehicle>
    <vehicle id="17" depart="17.00">
        <route edges="-3533483#0 -122623502#3 -122623502#2 -122623502#1 -122623502#0 -49023178#8 -49023178#7 -49023178#6 -49023178#5 -49023178#4 -49023178#3 -49023178#2 -49023178#1 -49023178#0 49023177 3322192#3 49023175 -281298271#7 -281298271#6 -281298271#5 -281298271#4 -281298271#3 3322191#0 3322191#1 3322191#2 3322191#3 5095429#0 5095429#1 5095429#2"/>
    </vehicle>
    <vehicle id="18" depart="18.00">
        <route edges="24244767#0 24244767#1 24244767#2 -49023178#5 24997259"/>
    </vehicle>
    <vehicle id="19" depart="19.00">
        <route edges="-24244770#0 24244767#1 24244767#2 -49023178#5 -49023178#4 -49023178#3 -49023178#2 24285791#0 24285791#1 107310453"/>
    </vehicle>
    <vehicle id="20" depart="20.00">
        <route edges="62003042#1 -62003042#1 -62003042#0 -49023178#8 -49023178#7 -49023178#6 -49023178#5 -49023178#4 -49023178#3 -49023178#2 -49023178#1 -49023178#0 49023177 3322192#3 49023175 -281298271#7 -281298271#6 -281298271#5 -281298271#4 -281298271#3 3322191#0"/>
    </vehicle>
    <vehicle id="21" depart="21.00">
        <route edges="122559499#1 -122559499#1 -122559499#0 -122559494#2 -122559494#1 -122559494#0 49023178#7 49023178#8 122623502#0 122623502#1 122623502#2 122623502#3 3533483#0"/>
    </vehicle>
    <vehicle id="22" depart="22.00">
        <route edges="48926982 49022848 49022851 3525321 186161948 1132279961#1 30662377 1333581211 1132279960 30662378 1132279963 50326257 1132279962#0 42949689 186161949 166036022 49022859 49022855"/>
    </vehicle>
    <vehicle id="23" depart="23.00">
        <route edges="-3322191#0 281298271#3 -122559494#13 -122559494#12"/>
    </vehicle>
    <vehicle id="24" depart="24.00">
        <route edges="-49024220 4480145#1 281298271#2 3322191#0 3322191#1 3322191#2 3322191#3 3322191#4 3322191#5 3322191#6 3322191#7 49156883#0 49156884 -49156884 -49156883#0"/>
    </vehicle>
    <vehicle id="25" depart="25.00">
        <route edges="-281298271#3 3322191#0 3322191#1 3322191#2 3322191#3 5095429#0 5095429#1 5095429#2"/>
    </vehicle>
    <vehicle id="26" depart="26.00">
        <route edges="49023178#0 49023178#1 -49023178#1 -49023178#0 49023177 3322192#3 49023175 -281298271#7 -281298271#6 -281298271#5 -281298271#4 -281298271#3 3322191#0 3322191#1 3322191#2 3322191#3 5095429#0 5095429#1 -5094815#2 -5094815#1"/>
    </vehicle>
    <vehicle id="27" depart="27.00">
        <route edges="24285791#1 -24285791#1 -24285791#0 49023178#2 49023178#3 49023178#4 49023178#5 49023178#6 122559494#0 122559494#1 122559494#2 122559494#3 1146991397"/>
    </vehicle>
    <vehicle id="28" depart="28.00">
        <route edges="-3533483#0 -122623502#3 -122623502#2 -122623502#1 -122623502#0 -49023178#8 -49023178#7 -49023178#6 -49023178#5"/>
    </vehicle>
    <vehicle id="29" depart="29.00">
        <route edges="1333581212 1132279962#0 1132279962#1 30662376 1132279961#0 1132279961#1 30662377 1333581211 1132279960 30662378 1132279963 3322195 3322192#7 3322192#8 3322192#0 3322192#1 3322150 49023178#0 49023178#1 49023178#2 49023178#3 49023178#4 49023178#5 49023178#6 122559494#0 122559494#1 122559494#2 122559494#3 122559494#4 122559494#5 -22948823 49139996#1 -49139996#1"/>
    </vehicle>
    <vehicle id="30" depart="30.00">
        <route edges="-5094815#0 -8159894#0 -3322191#9 -3322191#8 -3322191#7 -3322191#6 -3322191#5 -3322191#4 -3322191#3 -3322191#2 -3322191#1 -3322191#0 281298271#3 281298271#4 281298271#5 281298271#6 281298271#7 516259817 3322192#5 3322192#6 3322192#7 3322192#8 3322192#0 3322192#1 3322150 49023178#0 49023178#1 49023178#2 49023178#3 49023178#4 49023178#5 49023178#6 49023178#7 49023178#8 62003042#0 62003042#1 -1430842178 -3533483#2 -3533483#1 -3533483#0"/>
    </vehicle>
    <vehicle id="31" depart="31.00">
        <route edges="-122623502#5 -122623502#4 -122623502#3 -122623502#2 -122623502#1 -122623502#0 -49023178#8 -49023178#7 122559494#0 122559494#1 122559494#2 122559494#3 122559494#4 122559494#5 122559494#6 122559494#7 122559494#8 -122559494#8"/>
    </vehicle>
    <vehicle id="32" depart="32.00">
        <route edges="-149546739 3533483#2 1430842178 -62003042#1 -62003042#0 -49023178#8 -49023178#7 -49023178#6 -49023178#5 -49023178#4 -49023178#3 -49023178#2 -49023178#1 -49023178#0 49023177 3322192#3 49023175 -281298271#7 -281298271#6 -281298271#5 -281298271#4 281298271#4"/>
    </vehicle>
    <vehicle id="33" depart="33.00">
        <route edges="42949688 1333581212 1132279962#0 1132279962#1 30662376 1132279961#0 1132279961#1 30662377 1333581211 1132279960 30662378 1132279963 3322195 3322192#7 3322192#8 3322192#0 3322192#1 3322192#2 3322192#3 49023175 -281298271#7 -281298271#6 -281298271#5 -281298271#4 -122559494#13 -122559494#12 -122559494#11 -122559494#10 -122559495 122559495"/>
    </vehicle>
    <vehicle id="34" depart="34.00">
        <route edges="-122559495 122559495 122559494#10 122559494#11 122559494#12 122559494#13 281298271#4 281298271#5 281298271#6 281298271#7 516259817 3322192#5 3322192#6 3322192#7 3322192#8 3322192#0 3322192#1 3322150 49023178#0 49023178#1 24285791#0 24285791#1 107310453"/>
    </vehicle>
    <vehicle id="35" depart="35.00">
        <route edges="5095429#0 5095429#1 -5094815#2 -5094815#1 -5094815#0 -8159894#0 3322191#10 1037999382#0 1037999382#1 49921667"/>
    </vehicle>
    <vehicle id="36" depart="36.00">
        <route edges="-1037999382#6 -1037999382#5 -1037999382#4 -1037999382#3 -1037999382#2 -1037999382#1 -1037999382#0 -3322191#10 -3322191#9 -3322191#8 -3322191#7 -3322191#6 -3322191#5 -3322191#4 -3322191#3 -3322191#2 -3322191#1 -3322191#0 281298271#3 281298271#4 281298271#5 281298271#6 281298271#7 516259817 3322192#5 42949688 1333581212 1132279962#0 42949689"/>
    </vehicle>
    <vehicle id="37" depart="37.00">
        <route edges="281298271#0 281298271#1 281298271#2 281298271#3 281298271#4 281298271#5 281298271#6 281298271#7 516259817 3322192#5 42949688 1333581212 1132279962#0 42949689 186161949"/>
    </vehicle>
    <vehicle id="38" depart="38.00">
        <route edges="-3533483#0 -122623502#3 -122623502#2 -122623502#1 -122623502#0 -49023178#8 -49023178#7 -49023178#6 -49023178#5 -49023178#4 -49023178#3 -49023178#2 -49023178#1 -49023178#0 49023177 3322192#3 49023175 -281298271#7 -281298271#6 -281298271#5 -281298271#4 -281298271#3 3322191#0 3322191#1 3322191#2"/>
    </vehicle>
    <vehicle id="39" depart="39.00">
        <route edges="-149546739 3533483#2 1430842178 -62003042#1 -62003042#0 -49023178#8 -49023178#7 122559494#0 122559494#1 122559494#2 122559499#0"/>
    </vehicle>
    <vehicle id="40" depart="40.00">
        <route edges="-62003042#2 -62003042#1 -62003042#0 62003042#0"/>
    </vehicle>
    <vehicle id="41" depart="41.00">
        <route edges="49023178#0 49023178#1 49023178#2 49023178#3 49023178#4 49023178#5 49023178#6 122559494#0 122559494#1 122559494#2 122559494#3 122559494#4 122559494#5 -22948823 49139996#1 -49139996#1"/>
    </vehicle>
    <vehicle id="42" depart="42.00">
        <route edges="1037999383#1 1037999383#2 1037999383#3 -24997194 -3322191#6 -3322191#5 -3322191#4 -3322191#3 -3322191#2 -3322191#1 -3322191#0 281298271#3 281298271#4 281298271#5 281298271#6 281298271#7 516259817 3322192#5 3322192#6 3322192#7 3322192#8 3322192#0 3322192#1 3322192#2 3322192#3 49023175 -281298271#7"/>
    </vehicle>
    <vehicle id="43" depart="43.00">
        <route edges="5094760#0"/>
    </vehicle>
    <vehicle id="44" depart="44.00">
        <route edges="-49023178#6 -49023178#5 -49023178#4 -49023178#3 -49023178#2 -49023178#1 -49023178#0 49023177 3322192#3 49023175 -281298271#7 -281298271#6 -281298271#5 -281298271#4 -281298271#3 3322191#0"/>
    </vehicle>
    <vehicle id="45" depart="45.00">
        <route edges="3525321 186161948 1132279961#1 30662377 1333581211 1132279960 30662378 1132279963 50326257 1132279962#0 42949689 186161949"/>
    </vehicle>
    <vehicle id="46" depart="46.00">
        <route edges="-1037999382#0 -3322191#10 8159894#0 5094815#0 5094815#1 5094815#2 -5094815#2"/>
    </vehicle>
    <vehicle id="47" depart="47.00">
        <route edges="-107310453 -24285791#1 -24285791#0 -49023178#1 -49023178#0 49023177 3322192#3 49023175 -281298271#7 -281298271#6 -281298271#5 -281298271#4 -281298271#3 3322191#0 3322191#1 3322191#2 3322191#3 5095429#0"/>
    </vehicle>
    <vehicle id="48" depart="48.00">
        <route edges="49023178#2 -49023178#2 -49023178#1 -49023178#0 49023177 3322192#3 49023175 -281298271#7 -281298271#6 -281298271#5 -281298271#4 -281298271#3 -281298271#2 -4480145#1 49024220"/>
    </vehicle>
    <vehicle id="49" depart="49.00">
        <route edges="-49024220 4480145#1 281298271#2 281298271#3 -122559494#13 -122559494#12 -122559494#11 -122559494#10 -122559494#9 -122559498"/>
    </vehicle>
    <vehicle id="50" depart="50.00">
        <route edges="49023178#1 -49023178#1 -49023178#0 49023177 3322192#3 49023175 -281298271#7 -281298271#6 -281298271#5 -281298271#4 -281298271#3 3322191#0 3322191#1 3322191#2 3322191#3 5095429#0 5095429#1 5095429#2"/>
    </vehicle>
    <vehicle id="51" depart="51.00">
        <route edges="-122623502#5 -122623502#4 3533483#0 3533483#1 149546739"/>
    </vehicle>
    <vehicle id="52" depart="52.00">
        <route edges="-122559498 122559498 122559494#9 122559494#10 122559494#11 122559494#12 122559494#13 281298271#4 281298271#5 281298271#6 281298271#7 516259817 3322192#5 42949688 1333581212 1132279962#0 42949689 186161949 166036022 49022859 49022855"/>
    </vehicle>
    <vehicle id="53" depart="53.00">
        <route edges="3525600 42946933 1333581211 1132279960 30662378 1132279963 3322195 3322192#7 3322192#8 3322192#0 3322192#1 3322192#2 3322192#3 49023175 -281298271#7 -281298271#6 -281298271#5 -281298271#4 -281298271#3 -281298271#2 -281298271#1 -281298271#0"/>
    </vehicle>
    <vehicle id="54" depart="54.00">
        <route edges="-733935202 -122559499#1 -122559499#0 122559494#3 122559494#4 122559494#5 122559494#6 -22948815 22948815"/>
    </vehicle>
    <vehicle id="55" depart="55.00">
        <route edges="-3533483#0 -122623502#3 -122623502#2 -122623502#1 -122623502#0 -49023178#8 -49023178#7 -49023178#6 -49023178#5 -49023178#4 -49023178#3 -49023178#2 -49023178#1 -49023178#0 49023177 3322192#3 49023175 -281298271#7 -281298271#6 -281298271#5 -281298271#4 -281298271#3 3322191#0 3322191#1 3322191#2 3322191#3 3322191#4 3322191#5 3322191#6 3322191#7 3322191#8 5094760#0 5094760#1"/>
    </vehicle>
    <vehicle id="56" depart="56.00">
        <route edges="-5095429#2 -5095429#1 -5095429#0 -3322191#3 -3322191#2 -3322191#1 -3322191#0 281298271#3 281298271#4 281298271#5 281298271#6 281298271#7 516259817 3322192#5 3322192#6 3322192#7 3322192#8 3322192#0 3322192#1 3322150 49023178#0 49023178#1 49023178#2 49023178#3 49023178#4 49023178#5 49023178#6 49023178#7 49023178#8 62003042#0 62003042#1 -1430842178 -3533483#2 -3533483#1 -3533483#0"/>
    </vehicle>
    <vehicle id="57" depart="57.00">
        <route edges="-24997273#1 -24997273#0 -49023178#3 -49023178#2 -49023178#1 -49023178#0 49023177 3322192#3 49023175 -281298271#7 -281298271#6 -281298271#5 -281298271#4 -281298271#3 3322191#0 3322191#1 3322191#2 3322191#3 5095429#0 5095429#1 -5094815#2 -5094815#1 -5094815#0"/>
    </vehicle>
    <vehicle id="58" depart="58.00">
        <route edges="8159894#0 5094815#0 5094815#1 5094815#2 -5095429#1 -5095429#0 3322191#4"/>
    </vehicle>
    <vehicle id="59" depart="59.00">
        <route edges="-149546739 3533483#2 1430842178 -62003042#1 -62003042#0 -49023178#8 -49023178#7 -49023178#6 -49023178#5 -49023178#4 -49023178#3 -49023178#2 -49023178#1 -49023178#0 49023177 3322192#3 49023175 -281298271#7 -281298271#6 -281298271#5 -281298271#4 -281298271#3 -281298271#2 -4480145#1"/>
    </vehicle>
    <vehicle id="60" depart="60.00">
        <route edges="-49139996#1 22948823 -122559494#5 -122559494#4 -122559494#3 -122559494#2 -122559494#1 -122559494#0 -49023178#6 -49023178#5 -49023178#4 -49023178#3 -49023178#2 24285791#0 24285791#1 24285791#2"/>
    </vehicle>
    <vehicle id="61" depart="61.00">
        <route edges="-3322191#1 -3322191#0 281298271#3 281298271#4 281298271#5 281298271#6 281298271#7 516259817 3322192#5 3322192#6 3322192#7 3322192#8 3322192#0 3322192#1 3322150 49023178#0 49023178#1 49023178#2 49023178#3 49023178#4 49023178#5 49023178#6 49023178#7 49023178#8 62003042#0 62003042#1 -1430842178 -3533483#2 -3533483#1 -3533483#0"/>
    </vehicle>
    <vehicle id="62" depart="62.00">
        <route edges="-122559499#0 -122559494#2 -122559494#1 -122559494#0 -49023178#6 -49023178#5 -49023178#4 -49023178#3 -49023178#2 -49023178#1 -49023178#0 49023177 3322192#3 49023175 -281298271#7 -281298271#6 -281298271#5 -281298271#4 281298271#4"/>
    </vehicle>
    <vehicle id="63" depart="63.00">
        <route edges="48926982 49022848 49022851 3525321 186161948 1132279961#1 30662377 1333581211 1132279960 30662378 1132279963 3322195 3322192#7 3322192#8 3322192#0 3322192#1 3322150 49023178#0 49023178#1 49023178#2 49023178#3 49023178#4 49023178#5 -24244767#2 -24244767#1 -24244767#0 22960020#2 22960020#3 22960020#4 22960020#5 -122623502#4 -122623502#3 -122623502#2"/>
    </vehicle>
    <vehicle id="64" depart="64.00">
        <route edges="-281298271#3 -281298271#2 -281298271#1 -281298271#0"/>
    </vehicle>
    <vehicle id="65" depart="65.00">
        <route edges="-733935176 -122559494#1 -122559494#0 -49023178#6 -49023178#5 -49023178#4 -49023178#3 -49023178#2 -49023178#1 -49023178#0 49023177 3322192#3 3322192#4 3322192#5 42949688 1333581212 1132279962#0 42949689 186161949 166036022 49022859 49022855"/>
    </vehicle>
    <vehicle id="66" depart="66.00">
        <route edges="-122623502#5 -122623502#4 -122623502#3 -122623502#2 -122623502#1 -122623502#0 -49023178#8 -49023178#7 122559494#0 122559494#1 122559494#2 122559499#0"/>
    </vehicle>
    <vehicle id="67" depart="67.00">
        <route edges="-5095429#2 -5095429#1 -5095429#0 -3322191#3 -3322191#2 -3322191#1 -3322191#0 281298271#3 281298271#4 281298271#5 281298271#6 281298271#7 516259817 3322192#5 3322192#6 3322192#7 3322192#8 3322192#0 3322192#1 3322150 49023178#0 49023178#1 49023178#2 49023178#3 49023178#4 49023178#5 49023178#6 49023178#7 49023178#8 62003042#0 62003042#1 -1430842178 -3533483#2 149546739"/>
    </vehicle>
    <vehicle id="68" depart="68.00">
        <route edges="62003042#0 62003042#1 -1430842178 -3533483#2 -3533483#1 -3533483#0 122623502#4 -22960020#5 -22960020#4 -22960020#3 -22960020#2"/>
    </vehicle>
    <vehicle id="69" depart="69.00">
        <route edges="-5094815#1 5094815#1 5094815#2 -5095429#1 -5095429#0 -3322191#3 -3322191#2 -3322191#1 -3322191#0 281298271#3 281298271#4 281298271#5 281298271#6 281298271#7 516259817 3322192#5 3322192#6 3322192#7 3322192#8 3322192#0 3322192#1 3322150 49023178#0 49023178#1 49023178#2 49023178#3 49023178#4 49023178#5 49023178#6 49023178#7 49023178#8 62003042#0 62003042#1 -62003042#1 -62003042#0"/>
    </vehicle>
    <vehicle id="70" depart="70.00">
        <route edges="48926982 49022848 49022851 3525321 186161948 1132279961#1 30662377 1333581211 1132279960 30662378 1132279963 3322195 3322192#7 3322192#8 3322192#0 3322192#1 3322150 49023178#0 49023178#1 49023178#2 49023178#3 49023178#4 49023178#5 49023178#6 -49023178#6"/>
    </vehicle>
    <vehicle id="71" depart="71.00">
        <route edges="-24997194 -3322191#6 -3322191#5 -3322191#4 -3322191#3 -3322191#2 -3322191#1 -3322191#0 281298271#3 281298271#4 281298271#5 281298271#6 281298271#7 516259817 3322192#5 3322192#6 3322192#7 3322192#8 3322192#0 3322192#1 3322150 49023178#0 49023178#1 49023178#2 49023178#3 49023178#4 49023178#5 49023178#6 49023178#7 49023178#8 122623502#0 122623502#1 122623502#2 122623502#3 122623502#4 122623502#5"/>
    </vehicle>
    <vehicle id="72" depart="72.00">
        <route edges="-3322191#9 3322191#9 8159894#0 5094815#0 5094815#1 5094815#2"/>
    </vehicle>
    <vehicle id="73" depart="73.00">
        <route edges="-62003042#0 -49023178#8 -49023178#7 -49023178#6 -49023178#5 -49023178#4 -49023178#3 -49023178#2 -49023178#1 -49023178#0 49023177 3322192#3 49023175 -281298271#7 -281298271#6 -281298271#5 -281298271#4 -281298271#3 3322191#0 3322191#1 3322191#2 3322191#3 3322191#4 3322191#5 3322191#6 3322191#7 3322191#8 3322191#9 3322191#10 1037999382#0 1037999382#1 49921667"/>
    </vehicle>
    <vehicle id="74" depart="74.00">
        <route edges="122559499#0 -122559499#0 122559494#3 122559494#4 122559494#5 122559494#6 122559494#7 122559494#8 122559494#9 -122559495"/>
    </vehicle>
    <vehicle id="75" depart="75.00">
        <route edges="8159894#0 5094815#0 5094815#1 5094815#2 -5095429#1 -5095429#0 -3322191#3 -3322191#2 -3322191#1 -3322191#0 -281298271#2 -4480145#1 49024220"/>
    </vehicle>
    <vehicle id="76" depart="76.00">
        <route edges="5095429#0"/>
    </vehicle>
    <vehicle id="77" depart="77.00">
        <route edges="48926982 49022848 49022851 3525321 186161948 1132279961#1 30662377 1333581211 1132279960 30662378 1132279963 3322195 3322192#7 3322192#8 3322192#0 3322192#1 3322192#2 3322192#3 49023175 -281298271#7 -281298271#6 -281298271#5 -281298271#4 -281298271#3"/>
    </vehicle>
    <vehicle id="78" depart="78.00">
        <route edges="-8159894#1 5094815#0 5094815#1 5094815#2 -5095429#1 -5095429#0 -3322191#3 -3322191#2 -3322191#1 -3322191#0 281298271#3 281298271#4 281298271#5 281298271#6 281298271#7 516259817 3322192#5 3322192#6 3322192#7 3322192#8 3322192#0 3322192#1 3322150 49023178#0 49023178#1 49023178#2 49023178#3 49023178#4 49023178#5 49023178#6 49023178#7 49023178#8 62003042#0 62003042#1 -1430842178 -3533483#2 -3533483#1 -3533483#0"/>
    </vehicle>
    <vehicle id="79" depart="79.00">
        <route edges="-5094815#1 5094815#1 5094815#2 -5095429#1 -5095429#0 -3322191#3 -3322191#2 -3322191#1 -3322191#0 281298271#3 -122559494#13 -122559494#12 -122559494#11 -122559494#10 -122559494#9 -122559498"/>
    </vehicle>
    <vehicle id="80" depart="80.00">
        <route edges="-3533483#0 -122623502#3 -122623502#2 -122623502#1 -122623502#0 -49023178#8 -49023178#7 -49023178#6 -49023178#5 -49023178#4 -49023178#3 -49023178#2 -49023178#1 -49023178#0 49023177 3322192#3 3322192#4 3322192#5 42949688 1333581212 1132279962#0 42949689 186161949 166036022 49022859 49022855"/>
    </vehicle>
    <vehicle id="81" depart="81.00">
        <route edges="-62003042#5 -62003042#4 -62003042#3 -62003042#2 -62003042#1 -62003042#0 -49023178#8 -49023178#7 122559494#0 122559494#1 122559494#2 122559494#3 122559494#4 122559494#5 122559494#6 122559494#7 122559494#8 122559494#9 -122559495 122559495"/>
    </vehicle>
    <vehicle id="82" depart="82.00">
        <route edges="5094815#2 -5095429#1 -5095429#0 3322191#4 3322191#5 3322191#6 3322191#7 3322191#8 3322191#9 8159894#0"/>
    </vehicle>
    <vehicle id="83" depart="83.00">
        <route edges="122559499#1 -122559499#1 -122559499#0 -122559494#2 -122559494#1 -122559494#0 -49023178#6 -49023178#5 -49023178#4 -49023178#3 -49023178#2 -49023178#1 -49023178#0 49023177 3322192#3 3322192#4 3322192#5 42949688 1333581212 1132279962#0 42949689"/>
    </vehicle>
    <vehicle id="84" depart="84.00">
        <route edges="5095429#0 -5095429#0 -3322191#3 -3322191#2 -3322191#1 -3322191#0 281298271#3 281298271#4 281298271#5 281298271#6 281298271#7 516259817 3322192#5 3322192#6 3322192#7 3322192#8 3322192#0 3322192#1 3322150 49023178#0 49023178#1 24285791#0 24285791#1"/>
    </vehicle>
    <vehicle id="85" depart="85.00">
        <route edges="122559496 122559494#11 122559494#12 122559494#13 281298271#4 281298271#5 281298271#6 281298271#7 516259817 3322192#5 42949688 1333581212 1132279962#0 42949689 186161949 166036022 49022859 49022855"/>
    </vehicle>
    <vehicle id="86" depart="86.00">
        <route edges="-122559494#7 -122559494#6 -122559494#5 -122559494#4 -122559494#3 -122559494#2 -122559494#1 -122559494#0 -49023178#6 -49023178#5 -49023178#4 -49023178#3 -49023178#2 24285791#0 24285791#1 24285791#2"/>
    </vehicle>
    <vehicle id="87" depart="87.00">
        <route edges="107310453 -107310453 -24285791#1 -24285791#0 -49023178#1 -49023178#0 49023177 3322192#3 49023175 -281298271#7 -281298271#6 -281298271#5 -281298271#4 -281298271#3 3322191#0 3322191#1 3322191#2 3322191#3 3322191#4 3322191#5 3322191#6 3322191#7 49156883#0"/>
    </vehicle>
    <vehicle id="88" depart="88.00">
        <route edges="-22960020#4 -22960020#3 -22960020#2 24244767#0 24244767#1 24244767#2 49023178#6 49023178#7 49023178#8 62003042#0 62003042#1"/>
    </vehicle>
    <vehicle id="89" depart="89.00">
        <route edges="-122623502#1 -122623502#0 -49023178#8 -49023178#7 -49023178#6 -49023178#5 -49023178#4 -49023178#3 -49023178#2 -49023178#1 -49023178#0 49023177 3322192#3 49023175 -281298271#7 -281298271#6 -281298271#5 -281298271#4 -281298271#3 3322191#0 3322191#1 3322191#2 3322191#3 3322191#4 3322191#5 3322191#6 -3322191#6 -3322191#5 -3322191#4"/>
    </vehicle>
    <vehicle id="90" depart="90.00">
        <route edges="-3322191#4 -3322191#3 -3322191#2 -3322191#1 -3322191#0 281298271#3 281298271#4 281298271#5 281298271#6 281298271#7 516259817 3322192#5 3322192#6 3322192#7 3322192#8 3322192#0 3322192#1 3322150 49023178#0 49023178#1 49023178#2 24997256 50587148 -50587148 -24997256"/>
    </vehicle>
    <vehicle id="91" depart="91.00">
        <route edges="49023178#6 -49023178#6 -49023178#5"/>
    </vehicle>
    <vehicle id="92" depart="92.00">
        <route edges="-5095429#0 -3322191#3 -3322191#2 -3322191#1 -3322191#0 281298271#3 281298271#4 281298271#5 281298271#6 281298271#7 516259817 3322192#5 3322192#6 3322192#7 3322192#8 3322192#0 3322192#1 3322150 49023178#0 49023178#1 24285791#0 24285791#1 24285791#2"/>
    </vehicle>
    <vehicle id="93" depart="93.00">
        <route edges="122559494#2 -122559494#2 -122559494#1 -122559494#0 -49023178#6 -49023178#5 -49023178#4 -49023178#3 -49023178#2 -49023178#1 -49023178#0 49023177 3322192#3 49023175 -281298271#7 -281298271#6 -281298271#5 -281298271#4 -281298271#3 3322191#0 3322191#1 3322191#2 3322191#3 5095429#0 5095429#1 5095429#2"/>
    </vehicle>
    <vehicle id="94" depart="94.00">
        <route edges="-281298271#2 281298271#2 281298271#3 281298271#4 281298271#5 281298271#6 281298271#7 516259817 3322192#5 42949688 1333581212 1132279962#0 42949689"/>
    </vehicle>
    <vehicle id="95" depart="95.00">
        <route edges="-3322191#4 -3322191#3 -3322191#2 -3322191#1 -3322191#0 281298271#3 -122559494#13 -122559494#12 -122559494#11 -122559494#10 -122559494#9 -122559494#8 -122559494#7 -122559494#6 -122559494#5 -122559494#4 1146991397"/>
    </vehicle>
    <vehicle id="96" depart="96.00">
        <route edges="-49024220 4480145#1 281298271#2 281298271#3 281298271#4 281298271#5 281298271#6 281298271#7 516259817 3322192#5 42949688 1333581212 1132279962#0 42949689 186161949 166036022 49022859 49022855"/>
    </vehicle>
    <vehicle id="97" depart="97.00">
        <route edges="-122559499#0 -122559494#2 -122559494#1 -122559494#0 49023178#7 49023178#8 122623502#0 122623502#1 122623502#2 122623502#3 122623502#4 122623502#5"/>
    </vehicle>
    <vehicle id="98" depart="98.00">
        <route edges="8159894#0"/>
    </vehicle>
    <vehicle id="99" depart="99.00">
        <route edges="-122559499#0 -122559494#2 -122559494#1 -122559494#0 49023178#7 49023178#8 62003042#0 62003042#1 -1430842178 -3533483#2 -3533483#1 -3533483#0"/>
    </vehicle>
    <vehicle id="100" depart="100.00">
        <route edges="-3533483#0 -122623502#3 -122623502#2 -122623502#1 -122623502#0 -49023178#8 -49023178#7 -49023178#6 -49023178#5 -49023178#4 -49023178#3 -49023178#2 -49023178#1 -49023178#0 49023177 3322192#3 49023175 -281298271#7 -281298271#6 -281298271#5 -281298271#4 -281298271#3 3322191#0 3322191#1 3322191#2 3322191#3 5095429#0 5095429#1 5095429#2"/>
    </vehicle>
    <vehicle id="101" depart="101.00">
        <route edges="48926982 49022848 49022851 3525321 186161948 1132279961#1 30662377 1333581211 42946932"/>
    </vehicle>
    <vehicle id="102" depart="102.00">
        <route edges="186162354 3322195 3322192#7 3322192#8 3322192#0 3322192#1 3322150 49023178#0 49023178#1 49023178#2 49023178#3 49023178#4 49023178#5 49023178#6 122559494#0 122559494#1 122559494#2 122559499#0 122559499#1 733935202"/>
    </vehicle>
    <vehicle id="103" depart="103.00">