<?xml version="1.0" encoding="UTF-8"?>

<!-- generated on 2025-11-20 21:59:17.926063 by randomTrips.py v1_23_1+0000-676720d13f6
<configuration>
    <net-file value="test.net.xml"/>
    <route-file value="map50.rou.xml"/>
    <length value="True"/>
    <validate value="True"/>
    <end value="500.0"/>
    <period value="10.0"/>
</configuration>
-->

<!-- generated on 2025-11-20 21:59:17 by Eclipse SUMO duarouter Version 1.23.1
<duarouterConfiguration xmlns:xsi="http://www.w3.org/2001/XMLSchema-instance" xsi:noNamespaceSchemaLocation="http://sumo.dlr.de/xsd/duarouterConfiguration.xsd">

    <input>
        <net-file value="test.net.xml"/>
        <route-files value="trips.trips.xml"/>
    </input>

    <output>
        <output-file value="map50.rou.xml"/>
        <alternatives-output value="NUL"/>
    </output>

    <time>
        <begin value="0"/>
        <end value="500.0"/>
    </time>

    <report>
        <no-warnings value="true"/>
        <ignore-errors value="true"/>
        <no-step-log value="true"/>
    </report>

</duarouterConfiguration>
-->

<routes xmlns:xsi="http://www.w3.org/2001/XMLSchema-instance" xsi:noNamespaceSchemaLocation="http://sumo.dlr.de/xsd/routes_file.xsd">
    <vehicle id="0" depart="0.00">
        <route edges="22960020#2 22960020#3 22960020#4 22960020#5 -122623502#4 -122623502#3 -122623502#2 -122623502#1 -122623502#0 -49023178#8 -49023178#7 122559494#0 122559494#1 -122559494#1"/>
    </vehicle>
    <vehicle id="1" depart="10.00">
        <route edges="3322191#4 3322191#5 3322191#6 -3322191#6 -3322191#5 -3322191#4 -3322191#3 -3322191#2 -3322191#1 -3322191#0 281298271#3 281298271#4 281298271#5 281298271#6 281298271#7 516259817 3322192#5 42949688 1333581212 1132279962#0 1132279962#1 30662376 1132279961#0 1132279961#1 3525600"/>
    </vehicle>
    <vehicle id="2" depart="20.00">
        <route edges="49023178#6 122559494#0 122559494#1 122559494#2 122559494#3 122559494#4 122559494#5 -22948823"/>
    </vehicle>
    <vehicle id="3" depart="30.00">
        <route edges="-5095429#2 -5095429#1 -5095429#0 -3322191#3 -3322191#2 -3322191#1 -3322191#0 281298271#3 -122559494#13 -122559494#12 -122559494#11 -122559494#10"/>
    </vehicle>
    <vehicle id="4" depart="40.00">
        <route edges="-1131175356 1788063 3322192#1 3322192#2 3322192#3 49023175 -281298271#7 -281298271#6 -281298271#5 -281298271#4 -281298271#3 3322191#0 3322191#1 3322191#2 3322191#3 3322191#4 3322191#5 3322191#6 3322191#7 -3322191#7"/>
    </vehicle>
    <vehicle id="5" depart="50.00">
        <route edges="24244767#0 24244767#1 24244767#2 -49023178#5 -49023178#4 -49023178#3 -49023178#2 -49023178#1 -49023178#0 49023177 3322192#3 49023175 -281298271#7 -281298271#6 -281298271#5 -281298271#4 -122559494#13 -122559494#12 -22948781 22948781"/>
    </vehicle>
    <vehicle id="6" depart="60.00">
        <route edges="-281298271#4 281298271#4 281298271#5 281298271#6 281298271#7 516259817 3322192#5 3322192#6 3322192#7 3322192#8 3322192#0 3322192#1 3322150 49023178#0 49023178#1 24285791#0 24285791#1 24285791#2"/>
    </vehicle>
    <vehicle id="7" depart="70.00">
        <route edges="-49139996#1 22948823 122559494#6 122559494#7 122559494#8 122559494#9 122559494#10 122559494#11 122559494#12 122559494#13 -281298271#3 -281298271#2 -281298271#1"/>
    </vehicle>
    <vehicle id="8" depart="80.00">
        <route edges="5094815#2 -5095429#1 -5095429#0 -3322191#3 -3322191#2 -3322191#1 -3322191#0 281298271#3 281298271#4 281298271#5 281298271#6 281298271#7 516259817 3322192#5 3322192#6 3322192#7 3322192#8 3322192#0 3322192#1 3322150 49023178#0 49023178#1 49023178#2 49023178#3 49023178#4 49023178#5 49023178#6 49023178#7 49023178#8 62003042#0 62003042#1 -62003042#1 -62003042#0"/>
    </vehicle>
    <vehicle id="9" depart="90.00">
        <route edges="-122623502#5 -22960020#5 -22960020#4 -22960020#3 -22960020#2"/>
    </vehicle>
    <vehicle id="10" depart="100.00">
        <route edges="48926982 49022848 49022851 3525321 186161948 1132279961#1 30662377 1333581211 1132279960 30662378 1132279963 3322195 3322192#7 3322192#8 3322192#0 3322192#1 3322150 49023178#0 49023178#1 49023178#2 24997256"/>
    </vehicle>
    <vehicle id="11" depart="110.00">
        <route edges="4888747"/>
    </vehicle>
    <vehicle id="12" depart="120.00">
        <route edges="122559494#8 -122559494#8 -122559494#7 -122559494#6 -122559494#5 -122559494#4 -122559494#3 -122559494#2 -122559494#1 -122559494#0 49023178#7 49023178#8 62003042#0 62003042#1 62003042#2 62003042#3 62003042#4 62003042#5"/>
    </vehicle>
    <vehicle id="13" depart="130.00">
        <route edges="48926982 49022848 49022851 3525321 186161948 1132279961#1 30662377 1333581211 1132279960 30662378 1132279963 3322195 3322192#7 3322192#8 3322192#0 3322192#1 3322192#2 3322192#3 49023175 -281298271#7 -281298271#6 -281298271#5 -281298271#4 -281298271#3 281298271#3"/>
    </vehicle>
    <vehicle id="14" depart="140.00">
        <route edges="48926982 49022848 49022851 3525321 186161948 1132279961#1 30662377 1333581211 1132279960 30662378 1132279963 3322195 3322192#7 3322192#8 3322192#0 3322192#1 3322150 49023178#0 49023178#1 24285791#0 24285791#1"/>
    </vehicle>
    <vehicle id="15" depart="150.00">
        <route edges="281298271#2 281298271#3 -122559494#13 -122559494#12 -122559494#11 -122559494#10 -122559494#9 -122559494#8"/>
    </vehicle>
    <vehicle id="16" depart="160.00">
        <route edges="22948833 122559494#5 122559494#6 122559494#7 122559494#8 122559494#9 122559494#10 122559494#11 122559494#12 122559494#13 -281298271#3 3322191#0 3322191#1 3322191#2 3322191#3 3322191#4 3322191#5 3322191#6 3322191#7 3322191#8 3322191#9 3322191#10 1037999382#0 1037999382#1 1037999382#2"/>
    </vehicle>
    <vehicle id="17" depart="170.00">
        <route edges="-3533483#0 -122623502#3 -122623502#2 -122623502#1 -122623502#0 -49023178#8 -49023178#7 -49023178#6 -49023178#5 -49023178#4 -49023178#3 -49023178#2 -49023178#1 -49023178#0 49023177 3322192#3 49023175 -281298271#7 -281298271#6 -281298271#5 -281298271#4 -281298271#3 3322191#0 3322191#1 3322191#2 3322191#3 5095429#0 5095429#1 5095429#2"/>
    </vehicle>
    <vehicle id="18" depart="180.00">
        <route edges="24244767#0 24244767#1 24244767#2 -49023178#5 24997259"/>
    </vehicle>
    <vehicle id="19" depart="190.00">
        <route edges="-24244770#0 24244767#1 24244767#2 -49023178#5 -49023178#4 -49023178#3 -49023178#2 24285791#0 24285791#1 107310453"/>
    </vehicle>
    <vehicle id="20" depart="200.00">
        <route edges="62003042#1 -62003042#1 -62003042#0 -49023178#8 -49023178#7 -49023178#6 -49023178#5 -49023178#4 -49023178#3 -49023178#2 -49023178#1 -49023178#0 49023177 3322192#3 49023175 -281298271#7 -281298271#6 -281298271#5 -281298271#4 -281298271#3 3322191#0"/>
    </vehicle>
    <vehicle id="21" depart="210.00">
        <route edges="122559499#1 -122559499#1 -122559499#0 -122559494#2 -122559494#1 -122559494#0 49023178#7 49023178#8 122623502#0 122623502#1 122623502#2 122623502#3 3533483#0"/>
    </vehicle>
    <vehicle id="22" depart="220.00">
        <route edges="48926982 49022848 49022851 3525321 186161948 1132279961#1 30662377 1333581211 1132279960 30662378 1132279963 50326257 1132279962#0 42949689 186161949 166036022 49022859 49022855"/>
    </vehicle>
    <vehicle id="23" depart="230.00">
        <route edges="-3322191#0 281298271#3 -122559494#13 -122559494#12"/>
    </vehicle>
    <vehicle id="24" depart="240.00">
        <route edges="-49024220 4480145#1 281298271#2 3322191#0 3322191#1 3322191#2 3322191#3 3322191#4 3322191#5 3322191#6 3322191#7 49156883#0 49156884 -49156884 -49156883#0"/>
    </vehicle>
    <vehicle id="25" depart="250.00">
        <route edges="-281298271#3 3322191#0 3322191#1 3322191#2 3322191#3 5095429#0 5095429#1 5095429#2"/>
    </vehicle>
    <vehicle id="26" depart="260.00">
        <route edges="49023178#0 49023178#1 -49023178#1 -49023178#0 49023177 3322192#3 49023175 -281298271#7 -281298271#6 -281298271#5 -281298271#4 -281298271#3 3322191#0 3322191#1 3322191#2 3322191#3 5095429#0 5095429#1 -5094815#2 -5094815#1"/>
    </vehicle>
    <vehicle id="27" depart="270.00">
        <route edges="24285791#1 -24285791#1 -24285791#0 49023178#2 49023178#3 49023178#4 49023178#5 49023178#6 122559494#0 122559494#1 122559494#2 122559494#3 1146991397"/>
    </vehicle>
    <vehicle id="28" depart="280.00">
        <route edges="-3533483#0 -122623502#3 -122623502#2 -122623502#1 -122623502#0 -49023178#8 -49023178#7 -49023178#6 -49023178#5"/>
    </vehicle>
    <vehicle id="29" depart="290.00">
        <route edges="1333581212 1132279962#0 1132279962#1 30662376 1132279961#0 1132279961#1 30662377 1333581211 1132279960 30662378 1132279963 3322195 3322192#7 3322192#8 3322192#0 3322192#1 3322150 49023178#0 49023178#1 49023178#2 49023178#3 49023178#4 49023178#5 49023178#6 122559494#0 122559494#1 122559494#2 122559494#3 122559494#4 122559494#5 -22948823 49139996#1 -49139996#1"/>
    </vehicle>
    <vehicle id="30" depart="300.00">
        <route edges="-5094815#0 -8159894#0 -3322191#9 -3322191#8 -3322191#7 -3322191#6 -3322191#5 -3322191#4 -3322191#3 -3322191#2 -3322191#1 -3322191#0 281298271#3 281298271#4 281298271#5 281298271#6 281298271#7 516259817 3322192#5 3322192#6 3322192#7 3322192#8 3322192#0 3322192#1 3322150 49023178#0 49023178#1 49023178#2 49023178#3 49023178#4 49023178#5 49023178#6 49023178#7 49023178#8 62003042#0 62003042#1 -1430842178 -3533483#2 -3533483#1 -3533483#0"/>
    </vehicle>
    <vehicle id="31" depart="310.00">
        <route edges="-122623502#5 -122623502#4 -122623502#3 -122623502#2 -122623502#1 -122623502#0 -49023178#8 -49023178#7 122559494#0 122559494#1 122559494#2 122559494#3 122559494#4 122559494#5 122559494#6 122559494#7 122559494#8 -122559494#8"/>
    </vehicle>
    <vehicle id="32" depart="320.00">
        <route edges="-149546739 3533483#2 1430842178 -62003042#1 -62003042#0 -49023178#8 -49023178#7 -49023178#6 -49023178#5 -49023178#4 -49023178#3 -49023178#2 -49023178#1 -49023178#0 49023177 3322192#3 49023175 -281298271#7 -281298271#6 -281298271#5 -281298271#4 281298271#4"/>
    </vehicle>
    <vehicle id="33" depart="330.00">
        <route edges="42949688 1333581212 1132279962#0 1132279962#1 30662376 1132279961#0 1132279961#1 30662377 1333581211 1132279960 30662378 1132279963 3322195 3322192#7 3322192#8 3322192#0 3322192#1 3322192#2 3322192#3 49023175 -281298271#7 -281298271#6 -281298271#5 -281298271#4 -122559494#13 -122559494#12 -122559494#11 -122559494#10 -122559495 122559495"/>
    </vehicle>
    <vehicle id="34" depart="340.00">
        <route edges="-122559495 122559495 122559494#10 122559494#11 122559494#12 122559494#13 281298271#4 281298271#5 281298271#6 281298271#7 516259817 3322192#5 3322192#6 3322192#7 3322192#8 3322192#0 3322192#1 3322150 49023178#0 49023178#1 24285791#0 24285791#1 107310453"/>
    </vehicle>
    <vehicle id="35" depart="350.00">
        <route edges="5095429#0 5095429#1 -5094815#2 -5094815#1 -5094815#0 -8159894#0 3322191#10 1037999382#0 1037999382#1 49921667"/>
    </vehicle>
    <vehicle id="36" depart="360.00">
        <route edges="-1037999382#6 -1037999382#5 -1037999382#4 -1037999382#3 -1037999382#2 -1037999382#1 -1037999382#0 -3322191#10 -3322191#9 -3322191#8 -3322191#7 -3322191#6 -3322191#5 -3322191#4 -3322191#3 -3322191#2 -3322191#1 -3322191#0 281298271#3 281298271#4 281298271#5 281298271#6 281298271#7 516259817 3322192#5 42949688 1333581212 1132279962#0 42949689"/>
    </vehicle>
    <vehicle id="37" depart="370.00">
        <route edges="281298271#0 281298271#1 281298271#2 281298271#3 281298271#4 281298271#5 281298271#6 281298271#7 516259817 3322192#5 42949688 1333581212 1132279962#0 42949689 186161949"/>
    </vehicle>
    <vehicle id="38" depart="380.00">
        <route edges="-3533483#0 -122623502#3 -122623502#2 -122623502#1 -122623502#0 -49023178#8 -49023178#7 -49023178#6 -49023178#5 -49023178#4 -49023178#3 -49023178#2 -49023178#1 -49023178#0 49023177 3322192#3 49023175 -281298271#7 -281298271#6 -281298271#5 -281298271#4 -281298271#3 3322191#0 3322191#1 3322191#2"/>
    </vehicle>
    <vehicle id="39" depart="390.00">
        <route edges="-149546739 3533483#2 1430842178 -62003042#1 -62003042#0 -49023178#8 -49023178#7 122559494#0 122559494#1 122559494#2 122559499#0"/>
    </vehicle>
    <vehicle id="40" depart="400.00">
        <route edges="-62003042#2 -62003042#1 -62003042#0 62003042#0"/>
    </vehicle>
    <vehicle id="41" depart="410.00">
        <route edges="49023178#0 49023178#1 49023178#2 49023178#3 49023178#4 49023178#5 49023178#6 122559494#0 122559494#1 122559494#2 122559494#3 122559494#4 122559494#5 -22948823 49139996#1 -49139996#1"/>
    </vehicle>
    <vehicle id="42" depart="420.00">
        <route edges="1037999383#1 1037999383#2 1037999383#3 -24997194 -3322191#6 -3322191#5 -3322191#4 -3322191#3 -3322191#2 -3322191#1 -3322191#0 281298271#3 281298271#4 281298271#5 281298271#6 281298271#7 516259817 3322192#5 3322192#6 3322192#7 3322192#8 3322192#0 3322192#1 3322192#2 3322192#3 49023175 -281298271#7"/>
    </vehicle>
    <vehicle id="43" depart="430.00">
        <route edges="5094760#0"/>
    </vehicle>
    <vehicle id="44" depart="440.00">
        <route edges="-49023178#6 -49023178#5 -49023178#4 -49023178#3 -49023178#2 -49023178#1 -49023178#0 49023177 3322192#3 49023175 -281298271#7 -281298271#6 -281298271#5 -281298271#4 -281298271#3 3322191#0"/>
    </vehicle>
    <vehicle id="45" depart="450.00">
        <route edges="3525321 186161948 1132279961#1 30662377 1333581211 1132279960 30662378 1132279963 50326257 1132279962#0 42949689 186161949"/>
    </vehicle>
    <vehicle id="46" depart="460.00">
        <route edges="-1037999382#0 -3322191#10 8159894#0 5094815#0 5094815#1 5094815#2 -5094815#2"/>
    </vehicle>
    <vehicle id="47" depart="470.00">
        <route edges="-107310453 -24285791#1 -24285791#0 -49023178#1 -49023178#0 49023177 3322192#3 49023175 -281298271#7 -281298271#6 -281298271#5 -281298271#4 -281298271#3 3322191#0 3322191#1 3322191#2 3322191#3 5095429#0"/>
    </vehicle>
    <vehicle id="48" depart="480.00">
        <route edges="49023178#2 -49023178#2 -49023178#1 -49023178#0 49023177 3322192#3 49023175 -281298271#7 -281298271#6 -281298271#5 -281298271#4 -281298271#3 -281298271#2 -4480145#1 49024220"/>
    </vehicle>
    <vehicle id="49" depart="490.00">
        <route edges="-49024220 4480145#1 281298271#2 281298271#3 -122559494#13 -122559494#12 -122559494#11 -122559494#10 -122559494#9 -122559498"/>
    </vehicle>
</routes>
