<?xml version="1.0" encoding="UTF-8"?>

<!-- generated on 2025-11-20 17:48:01 by Eclipse SUMO netconvert Version 1.23.1
<netconvertConfiguration xmlns:xsi="http://www.w3.org/2001/XMLSchema-instance" xsi:noNamespaceSchemaLocation="http://sumo.dlr.de/xsd/netconvertConfiguration.xsd">

    <input>
        <type-files value="osmNetconvert.typ.xml"/>
        <osm-files value="map.osm"/>
    </input>

    <output>
        <output-file value="test.net.xml"/>
    </output>

    <projection>
        <proj.utm value="true"/>
    </projection>

    <report>
        <xml-validation value="never"/>
    </report>

</netconvertConfiguration>
-->

<net version="1.20" junctionCornerDetail="5" limitTurnSpeed="5.50" xmlns:xsi="http://www.w3.org/2001/XMLSchema-instance" xsi:noNamespaceSchemaLocation="http://sumo.dlr.de/xsd/net_file.xsd">

    <location netOffset="-654419.05,-5708899.05" convBoundary="0.00,0.00,1968.16,1777.15" origBoundary="-0.774457,51.509851,-0.745910,51.525966" projParameter="+proj=utm +zone=30 +ellps=WGS84 +datum=WGS84 +units=m +no_defs"/>

    <type id="highway.bridleway" priority="1" numLanes="1" speed="2.78" allow="pedestrian" oneway="1" width="2.00"/>
    <type id="highway.cycleway" priority="1" numLanes="1" speed="5.56" allow="bicycle" oneway="0" width="2.00"/>
    <type id="highway.footway" priority="1" numLanes="1" speed="2.78" allow="pedestrian" oneway="1" width="2.00"/>
    <type id="highway.motorway" priority="14" numLanes="2" speed="39.44" allow="private emergency authority army vip passenger hov taxi bus coach delivery truck trailer motorcycle evehicle custom1 custom2" oneway="1"/>
    <type id="highway.motorway_link" priority="9" numLanes="1" speed="22.22" allow="private emergency authority army vip passenger hov taxi bus coach delivery truck trailer motorcycle evehicle custom1 custom2" oneway="1"/>
    <type id="highway.path" priority="1" numLanes="1" speed="5.56" allow="pedestrian bicycle" oneway="0" width="2.00"/>
    <type id="highway.primary" priority="12" numLanes="2" speed="27.78" disallow="tram rail_urban rail rail_electric rail_fast ship container cable_car subway aircraft wheelchair scooter drone" oneway="0"/>
    <type id="highway.residential" priority="3" numLanes="1" speed="13.89" disallow="tram rail_urban rail rail_electric rail_fast ship container cable_car subway aircraft wheelchair scooter drone" oneway="0"/>
    <type id="highway.service" priority="1" numLanes="1" speed="5.56" allow="pedestrian delivery bicycle" oneway="0"/>
    <type id="highway.steps" priority="1" numLanes="1" speed="1.39" allow="pedestrian" oneway="1" width="2.00"/>
    <type id="highway.tertiary" priority="10" numLanes="1" speed="22.22" disallow="tram rail_urban rail rail_electric rail_fast ship container cable_car subway aircraft wheelchair scooter drone" oneway="0"/>
    <type id="highway.track" priority="1" numLanes="1" speed="5.56" allow="pedestrian motorcycle moped bicycle" oneway="0"/>
    <type id="highway.trunk_link" priority="8" numLanes="1" speed="22.22" disallow="pedestrian bicycle tram rail_urban rail rail_electric rail_fast ship container cable_car subway aircraft wheelchair scooter drone" oneway="0"/>

    <edge id=":10673314767_0" function="internal">
        <lane id=":10673314767_0_0" index="0" disallow="tram rail_urban rail rail_electric rail_fast ship container cable_car subway aircraft wheelchair scooter drone" speed="8.94" length="0.10" shape="1386.57,952.28 1386.57,952.28"/>
    </edge>
    <edge id=":10673314767_1" function="internal">
        <lane id=":10673314767_1_0" index="0" disallow="tram rail_urban rail rail_electric rail_fast ship container cable_car subway aircraft wheelchair scooter drone" speed="8.94" length="0.10" shape="1386.32,949.09 1386.32,949.09"/>
    </edge>
    <edge id=":10673323177_0" function="internal">
        <lane id=":10673323177_0_0" index="0" allow="pedestrian delivery bicycle" speed="9.72" length="0.10" shape="956.48,961.89 956.48,961.89"/>
    </edge>
    <edge id=":10673323177_1" function="internal">
        <lane id=":10673323177_1_0" index="0" allow="pedestrian delivery bicycle" speed="9.72" length="0.10" shape="953.33,961.33 953.33,961.33"/>
    </edge>
    <edge id=":10673323177_2" function="internal">
        <lane id=":10673323177_2_0" index="0" disallow="tram rail_urban rail rail_electric rail_fast ship container cable_car subway aircraft wheelchair scooter drone" speed="3.65" length="2.34" shape="953.33,961.33 954.33,960.29 955.19,960.03"/>
    </edge>
    <edge id=":10673323177_3" function="internal">
        <lane id=":10673323177_3_0" index="0" disallow="tram rail_urban rail rail_electric rail_fast ship container cable_car subway aircraft wheelchair scooter drone" speed="3.65" length="2.34" shape="955.19,960.03 955.90,960.57 956.48,961.89"/>
    </edge>
    <edge id=":10673338516_0" function="internal">
        <lane id=":10673338516_0_0" index="0" allow="pedestrian delivery bicycle" speed="8.94" length="0.10" shape="1052.10,753.79 1052.10,753.79"/>
    </edge>
    <edge id=":10673338516_1" function="internal">
        <lane id=":10673338516_1_0" index="0" allow="pedestrian delivery bicycle" speed="8.94" length="0.10" shape="1052.38,750.60 1052.38,750.60"/>
    </edge>
    <edge id=":10673338516_2" function="internal">
        <lane id=":10673338516_2_0" index="0" disallow="tram rail_urban rail rail_electric rail_fast ship container cable_car subway aircraft wheelchair scooter drone" speed="3.65" length="2.34" shape="1052.38,750.60 1053.51,751.51 1053.84,752.34"/>
    </edge>
    <edge id=":10673338516_3" function="internal">
        <lane id=":10673338516_3_0" index="0" disallow="tram rail_urban rail rail_electric rail_fast ship container cable_car subway aircraft wheelchair scooter drone" speed="3.65" length="2.34" shape="1053.84,752.34 1053.37,753.10 1052.10,753.79"/>
    </edge>
    <edge id=":10719729833_0" function="internal">
        <lane id=":10719729833_0_0" index="0" allow="pedestrian delivery bicycle" speed="9.49" length="0.10" shape="1563.45,529.81 1563.45,529.81"/>
    </edge>
    <edge id=":10719729833_1" function="internal">
        <lane id=":10719729833_1_0" index="0" allow="pedestrian delivery bicycle" speed="9.49" length="0.10" shape="1566.64,529.69 1566.64,529.69"/>
    </edge>
    <edge id=":10719729833_2" function="internal">
        <lane id=":10719729833_2_0" index="0" disallow="tram rail_urban rail rail_electric rail_fast ship container cable_car subway aircraft wheelchair scooter drone" speed="3.65" length="2.34" shape="1566.64,529.69 1565.89,530.92 1565.11,531.35"/>
    </edge>
    <edge id=":10719729833_3" function="internal">
        <lane id=":10719729833_3_0" index="0" disallow="tram rail_urban rail rail_electric rail_fast ship container cable_car subway aircraft wheelchair scooter drone" speed="3.65" length="2.34" shape="1565.11,531.35 1564.29,530.98 1563.45,529.81"/>
    </edge>
    <edge id=":10759352085_0" function="internal">
        <lane id=":10759352085_0_0" index="0" allow="pedestrian bicycle" speed="5.56" length="4.87" width="2.00" shape="760.56,600.90 759.15,600.58 758.19,600.33 757.25,600.03 755.88,599.54"/>
    </edge>
    <edge id=":10759352085_1" function="internal">
        <lane id=":10759352085_1_0" index="0" allow="pedestrian bicycle" speed="2.89" length="2.42" width="2.00" shape="760.56,600.90 759.93,600.25 759.79,599.71 760.14,599.27 760.52,599.13"/>
    </edge>
    <edge id=":10759352085_4" function="internal">
        <lane id=":10759352085_4_0" index="0" allow="pedestrian bicycle" speed="2.89" length="0.50" width="2.00" shape="760.52,599.13 760.98,598.94"/>
    </edge>
    <edge id=":10759352085_2" function="internal">
        <lane id=":10759352085_2_0" index="0" allow="pedestrian bicycle" speed="5.56" length="4.61" width="2.00" shape="756.56,597.66 757.85,598.12 758.74,598.41 759.65,598.65 760.98,598.94"/>
    </edge>
    <edge id=":10759352085_3" function="internal">
        <lane id=":10759352085_3_0" index="0" allow="pedestrian bicycle" speed="2.89" length="2.37" width="2.00" shape="756.56,597.66 757.09,598.39 757.16,598.94 756.76,599.33 756.42,599.41"/>
    </edge>
    <edge id=":10759352085_5" function="internal">
        <lane id=":10759352085_5_0" index="0" allow="pedestrian bicycle" speed="2.89" length="0.56" width="2.00" shape="756.42,599.41 755.88,599.54"/>
    </edge>
    <edge id=":10759352091_0" function="internal">
        <lane id=":10759352091_0_0" index="0" allow="pedestrian bicycle" speed="5.56" length="5.90" width="2.00" shape="421.86,817.42 420.41,816.48 419.02,816.02 417.68,816.03 416.40,816.51"/>
    </edge>
    <edge id=":10759352091_1" function="internal">
        <lane id=":10759352091_1_0" index="0" allow="pedestrian bicycle" speed="5.56" length="8.32" width="2.00" shape="421.86,817.42 419.93,815.88 418.67,814.74 417.60,813.42 416.26,811.36"/>
    </edge>
    <edge id=":10759352091_2" function="internal">
        <lane id=":10759352091_2_0" index="0" allow="pedestrian bicycle" speed="5.52" length="8.49" width="2.00" shape="421.86,817.42 420.16,815.62 419.67,813.92 420.41,812.31 422.37,810.79"/>
    </edge>
    <edge id=":10759352091_3" function="internal">
        <lane id=":10759352091_3_0" index="0" allow="pedestrian bicycle" speed="2.89" length="2.92" width="2.00" shape="421.86,817.42 421.58,816.56 421.70,816.01 422.21,815.78 423.10,815.86"/>
    </edge>
    <edge id=":10759352091_4" function="internal">
        <lane id=":10759352091_4_0" index="0" allow="pedestrian bicycle" speed="4.08" length="4.27" width="2.00" shape="423.36,812.53 422.38,813.29 422.01,814.10 422.25,814.95 423.10,815.86"/>
    </edge>
    <edge id=":10759352091_5" function="internal">
        <lane id=":10759352091_5_0" index="0" allow="pedestrian bicycle" speed="5.56" length="8.02" width="2.00" shape="423.36,812.53 416.40,816.51"/>
    </edge>
    <edge id=":10759352091_6" function="internal">
        <lane id=":10759352091_6_0" index="0" allow="pedestrian bicycle" speed="5.56" length="8.12" width="2.00" shape="423.36,812.53 421.16,813.46 419.24,813.58 417.61,812.88 416.26,811.36"/>
    </edge>
    <edge id=":10759352091_7" function="internal">
        <lane id=":10759352091_7_0" index="0" allow="pedestrian bicycle" speed="2.89" length="2.92" width="2.00" shape="423.36,812.53 422.46,812.46 422.00,812.16 421.96,811.60 422.37,810.79"/>
    </edge>
    <edge id=":10759352091_8" function="internal">
        <lane id=":10759352091_8_0" index="0" allow="pedestrian bicycle" speed="4.94" length="4.99" width="2.00" shape="417.95,810.30 418.75,811.16 419.75,811.53 420.96,811.41 422.37,810.79"/>
    </edge>
    <edge id=":10759352091_9" function="internal">
        <lane id=":10759352091_9_0" index="0" allow="pedestrian bicycle" speed="5.56" length="7.64" width="2.00" shape="417.95,810.30 419.19,812.19 420.17,813.40 421.33,814.44 423.10,815.86"/>
    </edge>
    <edge id=":10759352091_10" function="internal">
        <lane id=":10759352091_10_0" index="0" allow="pedestrian bicycle" speed="5.56" length="7.37" width="2.00" shape="417.95,810.30 418.78,812.16 418.79,813.81 418.00,815.26 416.40,816.51"/>
    </edge>
    <edge id=":10759352091_11" function="internal">
        <lane id=":10759352091_11_0" index="0" allow="pedestrian bicycle" speed="2.89" length="2.92" width="2.00" shape="417.95,810.30 417.93,811.20 417.64,811.68 417.08,811.73 416.26,811.36"/>
    </edge>
    <edge id=":10759352091_12" function="internal">
        <lane id=":10759352091_12_0" index="0" allow="pedestrian bicycle" speed="4.39" length="4.05" width="2.00" shape="415.40,814.78 416.28,814.09 416.72,813.29 416.71,812.38 416.26,811.36"/>
    </edge>
    <edge id=":10759352091_13" function="internal">
        <lane id=":10759352091_13_0" index="0" allow="pedestrian bicycle" speed="5.56" length="8.02" width="2.00" shape="415.40,814.78 422.37,810.79"/>
    </edge>
    <edge id=":10759352091_14" function="internal">
        <lane id=":10759352091_14_0" index="0" allow="pedestrian bicycle" speed="5.56" length="8.30" width="2.00" shape="415.40,814.78 417.27,814.05 419.18,813.99 421.12,814.59 423.10,815.86"/>
    </edge>
    <edge id=":10759352091_15" function="internal">
        <lane id=":10759352091_15_0" index="0" allow="pedestrian bicycle" speed="2.89" length="2.92" width="2.00" shape="415.40,814.78 416.30,814.84 416.77,815.15 416.80,815.71 416.40,816.51"/>
    </edge>
    <edge id=":10759352095_0" function="internal">
        <lane id=":10759352095_0_0" index="0" allow="pedestrian bicycle" speed="2.89" length="2.92" width="2.00" shape="393.84,681.54 394.48,680.91 395.02,680.76 395.46,681.11 395.81,681.94"/>
    </edge>
    <edge id=":10759380605_0" function="internal">
        <lane id=":10759380605_0_0" index="0" allow="pedestrian bicycle" speed="5.56" length="8.70" width="2.00" shape="800.94,623.32 798.52,622.35 796.85,621.43 795.17,620.95 792.75,621.27"/>
    </edge>
    <edge id=":10759380605_1" function="internal">
        <lane id=":10759380605_1_0" index="0" allow="pedestrian bicycle" speed="5.56" length="13.51" width="2.00" shape="800.94,623.32 796.74,621.69 795.41,620.06 796.94,618.44 801.33,616.83"/>
    </edge>
    <edge id=":10759380605_2" function="internal">
        <lane id=":10759380605_2_0" index="0" allow="pedestrian bicycle" speed="2.89" length="2.94" width="2.00" shape="800.94,623.32 800.44,622.56 800.41,622.00 800.83,621.64 801.73,621.47"/>
    </edge>
    <edge id=":10759380605_3" function="internal">
        <lane id=":10759380605_3_0" index="0" allow="pedestrian bicycle" speed="4.01" length="5.64" width="2.00" shape="801.86,618.76 800.03,619.43 799.40,620.10 799.97,620.78 801.73,621.47"/>
    </edge>
    <edge id=":10759380605_4" function="internal">
        <lane id=":10759380605_4_0" index="0" allow="pedestrian bicycle" speed="5.56" length="9.45" width="2.00" shape="801.86,618.76 792.75,621.27"/>
    </edge>
    <edge id=":10759380605_5" function="internal">
        <lane id=":10759380605_5_0" index="0" allow="pedestrian bicycle" speed="2.89" length="2.92" width="2.00" shape="801.86,618.76 801.00,618.48 800.63,618.06 800.74,617.51 801.33,616.83"/>
    </edge>
    <edge id=":10759380605_6" function="internal">
        <lane id=":10759380605_6_0" index="0" allow="pedestrian bicycle" speed="5.56" length="9.45" width="2.00" shape="792.21,619.34 801.33,616.83"/>
    </edge>
    <edge id=":10759380605_7" function="internal">
        <lane id=":10759380605_7_0" index="0" allow="pedestrian bicycle" speed="5.56" length="10.03" width="2.00" shape="792.21,619.34 795.02,618.94 796.98,619.41 798.93,620.38 801.73,621.47"/>
    </edge>
    <edge id=":10759380605_8" function="internal">
        <lane id=":10759380605_8_0" index="0" allow="pedestrian bicycle" speed="2.89" length="2.92" width="2.00" shape="792.21,619.34 793.07,619.63 793.44,620.04 793.34,620.59 792.75,621.27"/>
    </edge>
    <edge id=":10943457022_0" function="internal">
        <lane id=":10943457022_0_0" index="0" allow="pedestrian delivery bicycle" speed="3.65" length="4.67" shape="1111.84,1093.51 1113.13,1094.15 1113.63,1094.89 1113.33,1095.74 1112.24,1096.68"/>
    </edge>
    <edge id=":10943457029_0" function="internal">
        <lane id=":10943457029_0_0" index="0" allow="pedestrian delivery bicycle" speed="3.65" length="4.67" shape="1075.26,1169.23 1074.91,1170.63 1074.30,1171.28 1073.41,1171.17 1072.25,1170.32"/>
    </edge>
    <edge id=":10943457031_0" function="internal">
        <lane id=":10943457031_0_0" index="0" allow="pedestrian delivery bicycle" speed="5.56" length="9.42" shape="1061.75,1121.32 1061.66,1119.30 1060.98,1117.26 1059.70,1115.19 1057.82,1113.09"/>
    </edge>
    <edge id=":10943457031_1" function="internal">
        <lane id=":10943457031_1_0" index="0" allow="pedestrian delivery bicycle" speed="5.56" length="10.63" shape="1061.75,1121.32 1062.35,1117.85 1063.33,1115.20 1064.69,1113.38 1066.43,1112.38"/>
    </edge>
    <edge id=":10943457031_2" function="internal">
        <lane id=":10943457031_2_0" index="0" allow="pedestrian delivery bicycle" speed="3.87" length="5.55" shape="1061.75,1121.32 1061.96,1119.62 1062.60,1118.77 1063.66,1118.77 1065.15,1119.62"/>
    </edge>
    <edge id=":10943457031_3" function="internal">
        <lane id=":10943457031_3_0" index="0" allow="pedestrian delivery bicycle" speed="5.56" length="4.99" shape="1067.37,1115.44 1066.54,1115.91 1065.89,1116.76 1065.43,1118.00 1065.15,1119.62"/>
    </edge>
    <edge id=":10943457031_4" function="internal">
        <lane id=":10943457031_4_0" index="0" allow="pedestrian delivery bicycle" speed="5.56" length="10.34" shape="1067.37,1115.44 1064.74,1115.91 1062.27,1115.68 1059.97,1114.74 1057.82,1113.09"/>
    </edge>
    <edge id=":10943457031_5" function="internal">
        <lane id=":10943457031_5_0" index="0" allow="pedestrian delivery bicycle" speed="3.65" length="4.67" shape="1067.37,1115.44 1065.99,1115.02 1065.37,1114.37 1065.52,1113.49 1066.43,1112.38"/>
    </edge>
    <edge id=":10943457031_6" function="internal">
        <lane id=":10943457031_6_0" index="0" allow="pedestrian delivery bicycle" speed="5.56" length="6.09" shape="1060.71,1111.44 1061.86,1112.26 1063.20,1112.69 1064.72,1112.73 1066.43,1112.38"/>
    </edge>
    <edge id=":10943457031_7" function="internal">
        <lane id=":10943457031_7_0" index="0" allow="pedestrian delivery bicycle" speed="5.56" length="9.59" shape="1060.71,1111.44 1062.79,1113.70 1064.22,1115.81 1065.01,1117.79 1065.15,1119.62"/>
    </edge>
    <edge id=":10943457031_8" function="internal">
        <lane id=":10943457031_8_0" index="0" allow="pedestrian delivery bicycle" speed="3.70" length="4.86" shape="1060.71,1111.44 1060.61,1112.94 1060.10,1113.71 1059.17,1113.76 1057.82,1113.09"/>
    </edge>
    <edge id=":12287197678_0" function="internal">
        <lane id=":12287197678_0_0" index="0" allow="pedestrian delivery bicycle" speed="3.65" length="4.67" shape="868.78,1119.10 867.74,1118.10 867.49,1117.24 868.03,1116.52 869.36,1115.95"/>
    </edge>
    <edge id=":1233619385_0" function="internal">
        <lane id=":1233619385_0_0" index="0" allow="pedestrian delivery bicycle" speed="9.72" length="0.47" shape="884.12,1121.91 883.98,1121.90 883.88,1121.89 883.79,1121.87 883.65,1121.85"/>
    </edge>
    <edge id=":1233619385_1" function="internal">
        <lane id=":1233619385_1_0" index="0" disallow="tram rail_urban rail rail_electric rail_fast ship container cable_car subway aircraft wheelchair scooter drone" speed="3.65" length="2.34" shape="884.12,1121.91 882.99,1121.01 882.66,1120.18"/>
    </edge>
    <edge id=":1233619385_3" function="internal">
        <lane id=":1233619385_3_0" index="0" disallow="tram rail_urban rail rail_electric rail_fast ship container cable_car subway aircraft wheelchair scooter drone" speed="3.65" length="2.34" shape="882.66,1120.18 883.13,1119.42 884.39,1118.72"/>
    </edge>
    <edge id=":1233619385_2" function="internal">
        <lane id=":1233619385_2_0" index="0" allow="pedestrian delivery bicycle" speed="9.72" length="0.16" shape="884.23,1118.70 884.28,1118.71 884.31,1118.71 884.34,1118.72 884.39,1118.72"/>
    </edge>
    <edge id=":1233619390_0" function="internal">
        <lane id=":1233619390_0_0" index="0" disallow="tram rail_urban rail rail_electric rail_fast ship container cable_car subway aircraft wheelchair scooter drone" speed="13.41" length="14.60" shape="965.29,1174.97 963.93,1189.51"/>
    </edge>
    <edge id=":1233619390_1" function="internal">
        <lane id=":1233619390_1_0" index="0" disallow="tram rail_urban rail rail_electric rail_fast ship container cable_car subway aircraft wheelchair scooter drone" speed="7.95" length="4.25" shape="965.29,1174.97 964.45,1178.82 964.27,1179.07"/>
    </edge>
    <edge id=":1233619390_2" function="internal">
        <lane id=":1233619390_2_0" index="0" disallow="tram rail_urban rail rail_electric rail_fast ship container cable_car subway aircraft wheelchair scooter drone" speed="3.65" length="1.44" shape="965.29,1174.97 964.40,1176.11"/>
    </edge>
    <edge id=":1233619390_9" function="internal">
        <lane id=":1233619390_9_0" index="0" disallow="tram rail_urban rail rail_electric rail_fast ship container cable_car subway aircraft wheelchair scooter drone" speed="7.95" length="10.05" shape="964.27,1179.07 962.58,1181.44 959.68,1182.82 955.75,1182.99"/>
    </edge>
    <edge id=":1233619390_10" function="internal">
        <lane id=":1233619390_10_0" index="0" disallow="tram rail_urban rail rail_electric rail_fast ship container cable_car subway aircraft wheelchair scooter drone" speed="3.65" length="3.23" shape="964.40,1176.11 963.58,1176.45 962.81,1176.00 962.10,1174.74"/>
    </edge>
    <edge id=":1233619390_3" function="internal">
        <lane id=":1233619390_3_0" index="0" disallow="tram rail_urban rail rail_electric rail_fast ship container cable_car subway aircraft wheelchair scooter drone" speed="6.44" length="9.03" shape="956.07,1179.80 958.55,1179.70 960.39,1178.82 961.57,1177.17 962.10,1174.74"/>
    </edge>
    <edge id=":1233619390_4" function="internal">
        <lane id=":1233619390_4_0" index="0" disallow="tram rail_urban rail rail_electric rail_fast ship container cable_car subway aircraft wheelchair scooter drone" speed="7.99" length="14.28" shape="956.07,1179.80 959.89,1180.75 962.47,1182.68 963.82,1185.60 963.93,1189.51"/>
    </edge>
    <edge id=":1233619390_5" function="internal">
        <lane id=":1233619390_5_0" index="0" disallow="tram rail_urban rail rail_electric rail_fast ship container cable_car subway aircraft wheelchair scooter drone" speed="3.65" length="4.67" shape="956.07,1179.80 957.18,1180.72 957.50,1181.56 957.02,1182.31 955.75,1182.99"/>
    </edge>
    <edge id=":1233619390_6" function="internal">
        <lane id=":1233619390_6_0" index="0" disallow="tram rail_urban rail rail_electric rail_fast ship container cable_car subway aircraft wheelchair scooter drone" speed="6.49" length="9.07" shape="960.75,1189.14 960.68,1186.67 959.82,1184.81 958.18,1183.59 955.75,1182.99"/>
    </edge>
    <edge id=":1233619390_7" function="internal">
        <lane id=":1233619390_7_0" index="0" disallow="tram rail_urban rail rail_electric rail_fast ship container cable_car subway aircraft wheelchair scooter drone" speed="13.41" length="14.47" shape="960.75,1189.14 962.10,1174.74"/>
    </edge>
    <edge id=":1233619390_8" function="internal">
        <lane id=":1233619390_8_0" index="0" disallow="tram rail_urban rail rail_electric rail_fast ship container cable_car subway aircraft wheelchair scooter drone" speed="3.65" length="1.44" shape="960.75,1189.14 961.68,1188.04"/>
    </edge>
    <edge id=":1233619390_11" function="internal">
        <lane id=":1233619390_11_0" index="0" disallow="tram rail_urban rail rail_electric rail_fast ship container cable_car subway aircraft wheelchair scooter drone" speed="3.65" length="3.23" shape="961.68,1188.04 962.52,1187.74 963.27,1188.23 963.93,1189.51"/>
    </edge>
    <edge id=":1253558_0" function="internal">
        <lane id=":1253558_0_0" index="0" disallow="tram rail_urban rail rail_electric rail_fast ship container cable_car subway aircraft wheelchair scooter drone" speed="10.43" length="14.53" shape="833.45,1051.16 837.10,1049.86 840.03,1047.96 842.24,1045.44 843.73,1042.31"/>
        <lane id=":1253558_0_1" index="1" disallow="tram rail_urban rail rail_electric rail_fast ship container cable_car subway aircraft wheelchair scooter drone" speed="13.34" length="14.53" shape="834.21,1054.27 838.38,1053.04 841.06,1051.58 843.19,1049.33 845.70,1045.74"/>
    </edge>
    <edge id=":1253558_2" function="internal">
        <lane id=":1253558_2_0" index="0" disallow="tram rail_urban rail rail_electric rail_fast ship container cable_car subway aircraft wheelchair scooter drone" speed="26.82" length="13.68" shape="834.21,1054.27 838.12,1052.90 840.71,1051.52 843.33,1050.47 847.35,1050.08"/>
        <lane id=":1253558_2_1" index="1" disallow="tram rail_urban rail rail_electric rail_fast ship container cable_car subway aircraft wheelchair scooter drone" speed="26.82" length="13.68" shape="834.21,1054.27 838.10,1053.43 840.81,1053.15 843.56,1053.18 847.55,1053.29"/>
    </edge>
    <edge id=":1253565_0" function="internal">
        <lane id=":1253565_0_0" index="0" disallow="tram rail_urban rail rail_electric rail_fast ship container cable_car subway aircraft wheelchair scooter drone" speed="10.25" length="9.18" shape="816.69,1035.13 816.10,1037.67 816.16,1039.50 816.81,1041.29 818.00,1043.67"/>
        <lane id=":1253565_0_1" index="1" disallow="tram rail_urban rail rail_electric rail_fast ship container cable_car subway aircraft wheelchair scooter drone" speed="16.26" length="9.18" shape="813.46,1036.04 813.43,1038.81 813.53,1040.74 814.01,1042.58 815.13,1045.09"/>
    </edge>
    <edge id=":1253565_2" function="internal">
        <lane id=":1253565_2_0" index="0" disallow="tram rail_urban rail rail_electric rail_fast ship container cable_car subway aircraft wheelchair scooter drone" speed="20.41" length="8.93" shape="809.94,1038.46 812.42,1040.00 814.53,1040.64 816.35,1041.49 818.00,1043.67"/>
        <lane id=":1253565_2_1" index="1" disallow="tram rail_urban rail rail_electric rail_fast ship container cable_car subway aircraft wheelchair scooter drone" speed="18.38" length="8.93" shape="808.38,1041.36 810.42,1042.52 812.21,1042.88 813.76,1043.41 815.13,1045.09"/>
    </edge>
    <edge id=":13293414615_0" function="internal">
        <lane id=":13293414615_0_0" index="0" allow="pedestrian motorcycle moped bicycle" speed="3.65" length="4.67" shape="838.66,1067.95 837.82,1066.79 837.72,1065.90 838.38,1065.29 839.78,1064.96"/>
    </edge>
    <edge id=":13293414618_0" function="internal">
        <lane id=":13293414618_0_0" index="0" disallow="tram rail_urban rail rail_electric rail_fast ship container cable_car subway aircraft wheelchair scooter drone" speed="8.94" length="4.68" shape="1310.51,1038.57 1310.14,1043.23"/>
    </edge>
    <edge id=":13293414618_1" function="internal">
        <lane id=":13293414618_1_0" index="0" disallow="tram rail_urban rail rail_electric rail_fast ship container cable_car subway aircraft wheelchair scooter drone" speed="8.94" length="4.68" shape="1306.95,1042.98 1307.32,1038.32"/>
    </edge>
    <edge id=":13293414631_0" function="internal">
        <lane id=":13293414631_0_0" index="0" allow="pedestrian bicycle" speed="3.98" length="3.07" width="2.00" shape="1679.93,1030.92 1679.56,1030.44 1678.84,1030.35 1677.96,1030.48 1677.12,1030.63"/>
    </edge>
    <edge id=":13293414631_1" function="internal">
        <lane id=":13293414631_1_0" index="0" allow="pedestrian bicycle" speed="5.56" length="11.73" width="2.00" shape="1679.93,1030.92 1678.07,1019.34"/>
    </edge>
    <edge id=":13293414631_2" function="internal">
        <lane id=":13293414631_2_0" index="0" allow="pedestrian bicycle" speed="6.49" length="9.47" width="2.00" shape="1679.93,1030.92 1679.74,1027.82 1680.25,1025.52 1681.48,1024.01 1683.42,1023.29"/>
    </edge>
    <edge id=":13293414631_3" function="internal">
        <lane id=":13293414631_3_0" index="0" allow="pedestrian bicycle" speed="2.89" length="2.92" width="2.00" shape="1679.93,1030.92 1680.31,1030.10 1680.76,1029.78 1681.29,1029.95 1681.90,1030.61"/>
    </edge>
    <edge id=":13293414631_4" function="internal">
        <lane id=":13293414631_4_0" index="0" allow="pedestrian bicycle" speed="4.04" length="2.87" width="2.00" shape="1684.30,1029.63 1683.49,1029.70 1682.67,1029.80 1682.07,1030.06 1681.90,1030.61"/>
    </edge>
    <edge id=":13293414631_5" function="internal">
        <lane id=":13293414631_5_0" index="0" disallow="tram rail_urban rail rail_electric rail_fast ship container cable_car subway aircraft wheelchair scooter drone" speed="17.88" length="7.25" shape="1684.30,1029.63 1677.12,1030.63"/>
        <lane id=":13293414631_5_1" index="1" disallow="tram rail_urban rail rail_electric rail_fast ship container cable_car subway aircraft wheelchair scooter drone" speed="17.88" length="7.25" shape="1683.86,1026.46 1676.68,1027.46"/>
    </edge>
    <edge id=":13293414631_7" function="internal">
        <lane id=":13293414631_7_0" index="0" allow="pedestrian bicycle" speed="6.93" length="1.73" width="2.00" shape="1683.86,1026.46 1682.14,1026.29"/>
    </edge>
    <edge id=":13293414631_16" function="internal">
        <lane id=":13293414631_16_0" index="0" allow="pedestrian bicycle" speed="6.93" length="8.49" width="2.00" shape="1682.14,1026.29 1681.80,1026.25 1680.15,1025.00 1678.91,1022.69 1678.07,1019.34"/>
    </edge>
    <edge id=":13293414631_8" function="internal">
        <lane id=":13293414631_8_0" index="0" allow="pedestrian bicycle" speed="4.20" length="3.47" width="2.00" shape="1680.04,1019.02 1680.32,1019.64 1680.90,1020.03 1681.78,1020.19 1682.97,1020.12"/>
    </edge>
    <edge id=":13293414631_9" function="internal">
        <lane id=":13293414631_9_0" index="0" allow="pedestrian bicycle" speed="5.56" length="11.74" width="2.00" shape="1680.04,1019.02 1681.90,1030.61"/>
    </edge>
    <edge id=":13293414631_10" function="internal">
        <lane id=":13293414631_10_0" index="0" allow="pedestrian bicycle" speed="6.70" length="10.22" width="2.00" shape="1680.04,1019.02 1680.31,1022.47 1679.84,1025.03 1678.63,1026.69 1676.68,1027.46"/>
    </edge>
    <edge id=":13293414631_11" function="internal">
        <lane id=":13293414631_11_0" index="0" allow="pedestrian bicycle" speed="2.89" length="2.92" width="2.00" shape="1680.04,1019.02 1679.67,1019.84 1679.22,1020.16 1678.69,1020.00 1678.07,1019.34"/>
    </edge>
    <edge id=":13293414631_12" function="internal">
        <lane id=":13293414631_12_0" index="0" allow="pedestrian bicycle" speed="4.22" length="3.25" width="2.00" shape="1675.79,1021.13 1676.88,1020.88 1677.62,1020.50 1678.02,1019.99 1678.07,1019.34"/>
    </edge>
    <edge id=":13293414631_13" function="internal">