<?xml version="1.0" encoding="UTF-8"?>

<!-- generated on 2025-11-20 21:59:17.618076 by randomTrips.py v1_23_1+0000-676720d13f6
<configuration>
    <net-file value="test.net.xml"/>
    <route-file value="map50.rou.xml"/>
    <length value="True"/>
    <validate value="True"/>
    <end value="500.0"/>
    <period value="10.0"/>
</configuration>
-->

<routes xmlns:xsi="http://www.w3.org/2001/XMLSchema-instance" xsi:noNamespaceSchemaLocation="http://sumo.dlr.de/xsd/routes_file.xsd">
    <trip id="0" depart="0.00" from="22960020#2" to="-122559494#1"/>
    <trip id="1" depart="10.00" from="3322191#4" to="3525600"/>
    <trip id="2" depart="20.00" from="49023178#6" to="-22948823"/>
    <trip id="3" depart="30.00" from="-5095429#2" to="-122559494#10"/>
    <trip id="4" depart="40.00" from="-1131175356" to="-3322191#7"/>
    <trip id="5" depart="50.00" from="24244767#0" to="22948781"/>
    <trip id="6" depart="60.00" from="-281298271#4" to="24285791#2"/>
    <trip id="7" depart="70.00" from="-49139996#1" to="-281298271#1"/>
    <trip id="8" depart="80.00" from="5094815#2" to="-62003042#0"/>
    <trip id="9" depart="90.00" from="-122623502#5" to="-22960020#2"/>
    <trip id="10" depart="100.00" from="48926982" to="24997256"/>
    <trip id="11" depart="110.00" from="4888747" to="4888747"/>
    <trip id="12" depart="120.00" from="122559494#8" to="62003042#5"/>
    <trip id="13" depart="130.00" from="48926982" to="281298271#3"/>
    <trip id="14" depart="140.00" from="48926982" to="24285791#1"/>
    <trip id="15" depart="150.00" from="281298271#2" to="-122559494#8"/>
    <trip id="16" depart="160.00" from="22948833" to="1037999382#2"/>
    <trip id="17" depart="170.00" from="-3533483#0" to="5095429#2"/>
    <trip id="18" depart="180.00" from="24244767#0" to="24997259"/>
    <trip id="19" depart="190.00" from="-24244770#0" to="107310453"/>
    <trip id="20" depart="200.00" from="62003042#1" to="3322191#0"/>
    <trip id="21" depart="210.00" from="122559499#1" to="3533483#0"/>
    <trip id="22" depart="220.00" from="48926982" to="49022855"/>
    <trip id="23" depart="230.00" from="-3322191#0" to="-122559494#12"/>
    <trip id="24" depart="240.00" from="-49024220" to="-49156883#0"/>
    <trip id="25" depart="250.00" from="-281298271#3" to="5095429#2"/>
    <trip id="26" depart="260.00" from="49023178#0" to="-5094815#1"/>
    <trip id="27" depart="270.00" from="24285791#1" to="1146991397"/>
    <trip id="28" depart="280.00" from="-3533483#0" to="-49023178#5"/>
    <trip id="29" depart="290.00" from="1333581212" to="-49139996#1"/>
    <trip id="30" depart="300.00" from="-5094815#0" to="-3533483#0"/>
    <trip id="31" depart="310.00" from="-122623502#5" to="-122559494#8"/>
    <trip id="32" depart="320.00" from="-149546739" to="281298271#4"/>
    <trip id="33" depart="330.00" from="42949688" to="122559495"/>
    <trip id="34" depart="340.00" from="-122559495" to="107310453"/>
    <trip id="35" depart="350.00" from="5095429#0" to="49921667"/>
    <trip id="36" depart="360.00" from="-1037999382#6" to="42949689"/>
    <trip id="37" depart="370.00" from="281298271#0" to="186161949"/>
    <trip id="38" depart="380.00" from="-3533483#0" to="3322191#2"/>
    <trip id="39" depart="390.00" from="-149546739" to="122559499#0"/>
    <trip id="40" depart="400.00" from="-62003042#2" to="62003042#0"/>
    <trip id="41" depart="410.00" from="49023178#0" to="-49139996#1"/>
    <trip id="42" depart="420.00" from="1037999383#1" to="-281298271#7"/>
    <trip id="43" depart="430.00" from="5094760#0" to="5094760#0"/>
    <trip id="44" depart="440.00" from="-49023178#6" to="3322191#0"/>
    <trip id="45" depart="450.00" from="3525321" to="186161949"/>
    <trip id="46" depart="460.00" from="-1037999382#0" to="-5094815#2"/>
    <trip id="47" depart="470.00" from="-107310453" to="5095429#0"/>
    <trip id="48" depart="480.00" from="49023178#2" to="49024220"/>
    <trip id="49" depart="490.00" from="-49024220" to="-122559498"/>
</routes>
